geometry optimzed in LAMMPS
_audit_creation_date              2020-12-01 
_audit_creation_method            'lammps2cif' 
_symmetry_space_group_name_H-M    'P1' 
_symmetry_Int_Tables_number       1 
_symmetry_cell_setting            triclinic 
loop_ 
_symmetry_equiv_pos_as_xyz 
  x,y,z 
_cell_length_a                    60.72070339 
_cell_length_b                    60.855030986394446 
_cell_length_c                    67.43227455516939 
_cell_angle_alpha                 90.0668030377155 
_cell_angle_beta                  89.98903311815907 
_cell_angle_gamma                 90.0144539418003 
loop_ 
_atom_site_label 
_atom_site_type_symbol 
_atom_site_fract_x 
_atom_site_fract_y 
_atom_site_fract_z 
_atom_site_charge 
O1          O  0.37732700  0.68254677  0.15428893    -0.85800
O2          O  0.38195238  0.72463848  0.14113675    -0.82800
C3          C  0.39082508  0.74229887  0.13563747     0.97700
O4          O  0.40991673  0.74202696  0.12800509    -0.82900
O5          O  0.43905709  0.72848834  0.15770920    -0.85500
C6          C  0.44884281  0.71594141  0.16974503     1.02200
O7          O  0.44918307  0.69546791  0.16654189    -0.78300
O8          O  0.40611527  0.68450726  0.17386849    -0.78500
C9          C  0.38554564  0.68330625  0.17152777     1.02100
O10         O  0.39246736  0.66656840  0.11653296    -0.85800
O11         O  0.39444673  0.70903666  0.10236638    -0.82900
C12         C  0.41215149  0.71084946  0.09255336     0.97700
O13         O  0.43051633  0.71148340  0.10130366    -0.82900
O14         O  0.46183010  0.70074493  0.12917097    -0.85500
C15         C  0.46431604  0.68007168  0.12754187     1.02200
O16         O  0.44899839  0.66724312  0.13268069    -0.78300
O17         O  0.40750800  0.65211690  0.14291754    -0.78500
C18         C  0.39707745  0.64988802  0.12679600     1.02100
Cr19       Cr  0.38880227  0.69583889  0.12913819     1.93700
Cr20       Cr  0.43397360  0.71904713  0.12966878     1.93200
Cr21       Cr  0.42711322  0.67637803  0.15275040     1.39100
O22         O  0.41661591  0.69706264  0.13702034    -1.23500
O23         O  0.41031362  0.68890941  0.82293989    -0.85800
O24         O  0.45309124  0.69888162  0.83172769    -0.82800
C25         C  0.45294437  0.71933767  0.82849885     0.97700
O26         O  0.44313156  0.73199745  0.84046736    -0.82900
O27         O  0.41353012  0.74565395  0.86976764    -0.85500
C28         C  0.39473471  0.74653929  0.86162987     1.02200
O29         O  0.38562771  0.72922270  0.85555515    -0.78300
O30         O  0.38053551  0.68747675  0.84133526    -0.78500
C31         C  0.38966838  0.68774743  0.82441737     1.02100
O32         O  0.40957624  0.65621062  0.85340844    -0.85800
O33         O  0.45107991  0.67020780  0.86515852    -0.82900
C34         C  0.46679845  0.68260221  0.87017924     0.97700
O35         O  0.46460102  0.70335588  0.86908045    -0.82900
O36         O  0.43244114  0.71417769  0.89643120    -0.85500
C37         C  0.41377761  0.71382964  0.90471699     1.02200
O38         O  0.39633143  0.71271854  0.89442270    -0.78300
O39         O  0.39387152  0.67059153  0.87951087    -0.78500
C40         C  0.39851041  0.65396504  0.86917098     1.02100
Cr41       Cr  0.43014693  0.68009168  0.84458768     1.93700
Cr42       Cr  0.43707437  0.72222707  0.86830673     1.93200
Cr43       Cr  0.39133810  0.70009840  0.86720842     1.39100
O44         O  0.41947246  0.70078903  0.86020255    -1.23500
O45         O  0.68366982  0.61569347  0.15325982    -0.85800
O46         O  0.72597170  0.61256894  0.14005086    -0.82800
C47         C  0.74406869  0.60408006  0.13514491     0.97700
O48         O  0.74453307  0.58486694  0.12777138    -0.82900
O49         O  0.73032670  0.55453586  0.15643516    -0.85500
C50         C  0.71735808  0.54422521  0.16776946     1.02200
O51         O  0.69703260  0.54377550  0.16384272    -0.78300
O52         O  0.68546538  0.58644147  0.17224226    -0.78500
C53         C  0.68372501  0.60699065  0.17034471     1.02100
O54         O  0.66838127  0.60094373  0.11487723    -0.85800
O55         O  0.71096923  0.60024242  0.10109247    -0.82900
C56         C  0.71359405  0.58276039  0.09115428     0.97700
O57         O  0.71510532  0.56440943  0.09974371    -0.82900
O58         O  0.70359283  0.53243716  0.12658770    -0.85500
C59         C  0.68290476  0.52981713  0.12457957     1.02200
O60         O  0.66982544  0.54497661  0.12955247    -0.78300
O61         O  0.65380503  0.58569747  0.14100485    -0.78500
C62         C  0.65160696  0.59623806  0.12500279     1.02100
Cr63       Cr  0.69743857  0.60509651  0.12786553     1.93700
Cr64       Cr  0.72173493  0.56041957  0.12824092     1.93200
Cr65       Cr  0.67816736  0.56610542  0.15043118     1.39100
O66         O  0.69920134  0.57727170  0.13540069    -1.23500
O67         O  0.68934228  0.58559409  0.82192098    -0.85800
O68         O  0.70094977  0.54325388  0.83069468    -0.82800
C69         C  0.72140084  0.54362017  0.82718312     0.97700
O70         O  0.73414984  0.55384197  0.83877583    -0.82900
O71         O  0.74809154  0.58427793  0.86725785    -0.85500
C72         C  0.74810460  0.60321871  0.85938432     1.02200
O73         O  0.73022912  0.61183990  0.85406923    -0.78300
O74         O  0.68823576  0.61534300  0.84038018    -0.78500
C75         C  0.68810771  0.60619373  0.82347678     1.02100
O76         O  0.65745940  0.58554470  0.85300713    -0.85800
O77         O  0.67316917  0.54496452  0.86481329    -0.82900
C78         C  0.68605308  0.52970170  0.86982020     0.97700
O79         O  0.70676877  0.53225590  0.86818841    -0.82900
O80         O  0.71770996  0.56460875  0.89487837    -0.85500
C81         C  0.71648403  0.58310440  0.90326763     1.02200
O82         O  0.71445162  0.60051074  0.89312220    -0.78300
O83         O  0.67199863  0.60185569  0.87870994    -0.78500
C84         C  0.65525231  0.59676427  0.86866518     1.02100
Cr85       Cr  0.68185736  0.56573970  0.84387055     1.93700
Cr86       Cr  0.72502700  0.56011811  0.86665472     1.93200
Cr87       Cr  0.70139036  0.60509205  0.86606469     1.39100
O88         O  0.70280166  0.57706158  0.85896009    -1.23500
O89         O  0.61779632  0.30903649  0.15255798    -0.85800
O90         O  0.61309536  0.26703516  0.13898653    -0.82800
C91         C  0.60393721  0.24945958  0.13357272     0.97700
O92         O  0.58492573  0.25001678  0.12577830    -0.82900
O93         O  0.55496906  0.26492384  0.15448006    -0.85500
C94         C  0.54461032  0.27805343  0.16560950     1.02200
O95         O  0.54509833  0.29841484  0.16209086    -0.78300
O96         O  0.58804527  0.30829886  0.17107789    -0.78500
C97         C  0.60873003  0.30904684  0.16949766     1.02100
O98         O  0.60441955  0.32532890  0.11418234    -0.85800
O99         O  0.60202222  0.28290103  0.10002937    -0.82900
C100        C  0.58451696  0.28125392  0.08991225     0.97700
O101        O  0.56595456  0.28068256  0.09827463    -0.82900
O102        O  0.53403256  0.29266774  0.12492428    -0.85500
C103        C  0.53203022  0.31338333  0.12312842     1.02200
O104        O  0.54765315  0.32590405  0.12815497    -0.78300
O105        O  0.58889883  0.34023017  0.14009878    -0.78500
C106        C  0.59972357  0.34218516  0.12420603     1.02100
Cr107      Cr  0.60707801  0.29599429  0.12694544     1.93700
Cr108      Cr  0.56138804  0.27365602  0.12649887     1.93200
Cr109      Cr  0.56830738  0.31658929  0.14913893     1.39100
O110        O  0.57899395  0.29537027  0.13406659    -1.23500
O111        O  0.59343794  0.30726373  0.82114153    -0.85800
O112        O  0.55081128  0.29586473  0.82954190    -0.82800
C113        C  0.55155070  0.27553244  0.82585744     0.97700
O114        O  0.56190872  0.26287990  0.83740084    -0.82900
O115        O  0.59172345  0.24940627  0.86685385    -0.85500
C116        C  0.61110539  0.24964225  0.85976428     1.02200
O117        O  0.61955254  0.26749450  0.85427615    -0.78300
O118        O  0.62284380  0.30918582  0.84004934    -0.78500
C119        C  0.61405483  0.30873752  0.82296382     1.02100
O120        O  0.59269679  0.33950195  0.85176431    -0.85800
O121        O  0.55175378  0.32383639  0.86334073    -0.82900
C122        C  0.53640652  0.31090205  0.86817205     0.97700
O123        O  0.53905999  0.29022096  0.86640973    -0.82900
O124        O  0.57073243  0.27958169  0.89366368    -0.85500
C125        C  0.58894639  0.28126709  0.90249442     1.02200
O126        O  0.60670905  0.28354784  0.89282963    -0.78300
O127        O  0.60775256  0.32546906  0.87819596    -0.78500
C128        C  0.60309610  0.34198562  0.86781883     1.02100
Cr129      Cr  0.57305150  0.31505375  0.84270240     1.93700
Cr130      Cr  0.56720648  0.27211449  0.86544741     1.93200
Cr131      Cr  0.61199353  0.29625223  0.86577555     1.39100
O132        O  0.58417356  0.29439340  0.85808346    -1.23500
O133        O  0.31009946  0.37554226  0.15528232    -0.85800
O134        O  0.26859452  0.37978469  0.14049338    -0.82800
C135        C  0.25093591  0.38875621  0.13508017     0.97700
O136        O  0.25121957  0.40796377  0.12780008    -0.82900
O137        O  0.26464224  0.43716821  0.15742754    -0.85500
C138        C  0.27716532  0.44727215  0.16928838     1.02200
O139        O  0.29765877  0.44765990  0.16610547    -0.78300
O140        O  0.30807956  0.40477482  0.17432023    -0.78500
C141        C  0.30917892  0.38418384  0.17241894     1.02100
O142        O  0.32728505  0.39062245  0.11740783    -0.85800
O143        O  0.28551106  0.39229615  0.10214027    -0.82900
C144        C  0.28369886  0.41001298  0.09238713     0.97700
O145        O  0.28219555  0.42824211  0.10122307    -0.82900
O146        O  0.29295050  0.45955466  0.12892281    -0.85500
C147        C  0.31372838  0.46190399  0.12755476     1.02200
O148        O  0.32639821  0.44650456  0.13277722    -0.78300
O149        O  0.34117490  0.40524909  0.14414915    -0.78500
C150        C  0.34378526  0.39517543  0.12792198     1.02100
Cr151      Cr  0.29773669  0.38677536  0.12939870     1.93700
Cr152      Cr  0.27435229  0.43186298  0.12948442     1.93200
Cr153      Cr  0.31677809  0.42518175  0.15305665     1.39100
O154        O  0.29623582  0.41454497  0.13716932    -1.23500
O155        O  0.31440558  0.40814890  0.82265936    -0.85800
O156        O  0.30359790  0.45079272  0.83131305    -0.82800
C157        C  0.28319621  0.45051809  0.82763728     0.97700
O158        O  0.27026362  0.44060844  0.83928646    -0.82900
O159        O  0.25581890  0.41095511  0.86818989    -0.85500
C160        C  0.25533588  0.39209826  0.86019398     1.02200
O161        O  0.27299865  0.38301244  0.85488864    -0.78300
O162        O  0.31499751  0.37842236  0.84109324    -0.78500
C163        C  0.31541835  0.38752426  0.82417913     1.02100
O164        O  0.34626014  0.40788724  0.85365640    -0.85800
O165        O  0.33140271  0.44917072  0.86532942    -0.82900
C166        C  0.31859858  0.46453648  0.87040781     0.97700
O167        O  0.29788466  0.46214127  0.86868818    -0.82900
O168        O  0.28653072  0.43025928  0.89557867    -0.85500
C169        C  0.28745800  0.41181087  0.90406683     1.02200
O170        O  0.28921281  0.39427498  0.89398484    -0.78300
O171        O  0.33158899  0.39179538  0.87937766    -0.78500
C172        C  0.34834789  0.39647529  0.86918579     1.02100
Cr173      Cr  0.32229567  0.42811704  0.84453143     1.93700
Cr174      Cr  0.27927071  0.43458898  0.86730414     1.93200
Cr175      Cr  0.30206105  0.38917422  0.86683483     1.39100
O176        O  0.30121837  0.41722433  0.85971086    -1.23500
O177        O  0.68485068  0.37485864  0.34038558    -0.85800
O178        O  0.72662178  0.38069898  0.35425756    -0.82800
C179        C  0.74395634  0.39032693  0.35965771     0.97700
O180        O  0.74280690  0.40907073  0.36781868    -0.82900
O181        O  0.72778229  0.43771746  0.33861610    -0.85500
C182        C  0.71488890  0.44748931  0.32689922     1.02200
O183        O  0.69439673  0.44747570  0.33033000    -0.78300
O184        O  0.68478360  0.40449439  0.32181219    -0.78500
C185        C  0.68431197  0.38387063  0.32342835     1.02100
O186        O  0.66781219  0.38799077  0.37859248    -0.85800
O187        O  0.70991013  0.39173322  0.39334123    -0.82900
C188        C  0.71110563  0.40941913  0.40329609     0.97700
O189        O  0.71128800  0.42781318  0.39470155    -0.82900
O190        O  0.69919800  0.45908148  0.36747996    -0.85500
C191        C  0.67839707  0.46067691  0.36926128     1.02200
O192        O  0.66622222  0.44477669  0.36436303    -0.78300
O193        O  0.65261433  0.40320875  0.35268492    -0.78500
C194        C  0.65091430  0.39192501  0.36835868     1.02100
Cr195      Cr  0.69736100  0.38604470  0.36614049     1.93700
Cr196      Cr  0.71869085  0.43202443  0.36653248     1.93200
Cr197      Cr  0.67610367  0.42419926  0.34356510     1.39100
O198        O  0.69737129  0.41400526  0.35889603    -1.23500
O199        O  0.69307767  0.40355393  0.67276045    -0.85800
O200        O  0.70264753  0.44682030  0.66568268    -0.82800
C201        C  0.72311344  0.44675636  0.66900343     0.97700
O202        O  0.73601455  0.43804008  0.65657097    -0.82900
O203        O  0.75039308  0.40946242  0.62676721    -0.85500
C204        C  0.75117155  0.39031282  0.63423087     1.02200
O205        O  0.73367380  0.38090297  0.63953220    -0.78300
O206        O  0.69174991  0.37489036  0.65306723    -0.78500
C207        C  0.69202276  0.38303067  0.67037684     1.02100
O208        O  0.66048203  0.40424448  0.64211038    -0.85800
O209        O  0.67406637  0.44622813  0.63221098    -0.82900
C210        C  0.68627762  0.46207463  0.62719173     0.97700
O211        O  0.70714056  0.46014025  0.62826877    -0.82900
O212        O  0.71884643  0.42928221  0.60016865    -0.85500
C213        C  0.71833812  0.41101203  0.59128910     1.02200
O214        O  0.71742560  0.39323786  0.60101534    -0.78300
O215        O  0.67509465  0.39019048  0.61536412    -0.78500
C216        C  0.65832671  0.39437860  0.62571762     1.02100
Cr217      Cr  0.68417575  0.42442374  0.65189793     1.93700
Cr218      Cr  0.72652618  0.43284058  0.62853375     1.93200
Cr219      Cr  0.70457350  0.38704428  0.62782937     1.39100
O220        O  0.70510258  0.41476142  0.63593068    -1.23500
O221        O  0.61646537  0.68290595  0.34043206    -0.85800
O222        O  0.61392520  0.72415656  0.35617019    -0.82800
C223        C  0.60531484  0.74192947  0.36178069     0.97700
O224        O  0.58613023  0.74199950  0.36917948    -0.82900
O225        O  0.55636332  0.73044909  0.33942661    -0.85500
C226        C  0.54559311  0.71866990  0.32742909     1.02200
O227        O  0.54460599  0.69814847  0.33006277    -0.78300
O228        O  0.58735355  0.68654148  0.32135905    -0.78500
C229        C  0.60790638  0.68439001  0.32331844     1.02100
O230        O  0.60091180  0.66515599  0.37770776    -0.85800
O231        O  0.60084162  0.70651801  0.39405730    -0.82900
C232        C  0.58325475  0.70892082  0.40395409     0.97700
O233        O  0.56498987  0.71122204  0.39526417    -0.82900
O234        O  0.53329172  0.70223871  0.36740549    -0.85500
C235        C  0.53039869  0.68158905  0.36852221     1.02200
O236        O  0.54524709  0.66855172  0.36276631    -0.78300
O237        O  0.58577264  0.65267262  0.35062720    -0.78500
C238        C  0.59581824  0.64919277  0.36672244     1.02100
Cr239      Cr  0.60582496  0.69492556  0.36653408     1.93700
Cr240      Cr  0.56151449  0.71983348  0.36713249     1.93200
Cr241      Cr  0.56665438  0.67798957  0.34250629     1.39100
O242        O  0.57808031  0.69764751  0.35885340    -1.23500
O243        O  0.59270322  0.68638863  0.67382382    -0.85800
O244        O  0.54961585  0.69709548  0.66626513    -0.82800
C245        C  0.55006251  0.71751110  0.66962196     0.97700
O246        O  0.55999419  0.73002891  0.65765812    -0.82900
O247        O  0.58951430  0.74331987  0.62826956    -0.85500
C248        C  0.60885038  0.74319879  0.63537318     1.02200
O249        O  0.61785151  0.72533495  0.64013038    -0.78300
O250        O  0.62151196  0.68362409  0.65429648    -0.78500
C251        C  0.61323546  0.68465573  0.67154001     1.02100
O252        O  0.59138544  0.65332441  0.64360929    -0.85800
O253        O  0.55017288  0.66869241  0.63274265    -0.82900
C254        C  0.53490566  0.68149056  0.62745972     0.97700
O255        O  0.53743287  0.70220997  0.62878794    -0.82900
O256        O  0.56880210  0.71335138  0.60113024    -0.85500
C257        C  0.58700309  0.71187253  0.59217869     1.02200
O258        O  0.60473735  0.70914123  0.60176607    -0.78300
O259        O  0.60589283  0.66685555  0.61667594    -0.78500
C260        C  0.60138851  0.65046077  0.62736081     1.02100
Cr261      Cr  0.57183736  0.67795393  0.65281280     1.93700
Cr262      Cr  0.56531199  0.72054974  0.62957392     1.93200
Cr263      Cr  0.61022855  0.69643040  0.62878321     1.39100
O264        O  0.58249664  0.69836637  0.63687008    -1.23500
O265        O  0.30882817  0.61995596  0.34064241    -0.85800
O266        O  0.26722246  0.61379967  0.35449874    -0.82800
C267        C  0.24989073  0.60426314  0.35998461     0.97700
O268        O  0.25088728  0.58532112  0.36784955    -0.82900
O269        O  0.26520652  0.55632282  0.33832947    -0.85500
C270        C  0.27804420  0.54704506  0.32618629     1.02200
O271        O  0.29857652  0.54769530  0.32909659    -0.78300
O272        O  0.30710139  0.59110373  0.32116609    -0.78500
C273        C  0.30820065  0.61164411  0.32340371     1.02100
O274        O  0.32587756  0.60531058  0.37831306    -0.85800
O275        O  0.28376606  0.60225466  0.39314996    -0.82900
C276        C  0.28317110  0.58458058  0.40305262     0.97700
O277        O  0.28302266  0.56622863  0.39433559    -0.82900
O278        O  0.29485025  0.53527326  0.36653144    -0.85500
C279        C  0.31576060  0.53390828  0.36751055     1.02200
O280        O  0.32755376  0.54992436  0.36222421    -0.78300
O281        O  0.34023316  0.59162329  0.35129374    -0.78500
C282        C  0.34249292  0.60143903  0.36768767     1.02100
Cr283      Cr  0.29634810  0.60815483  0.36611954     1.93700
Cr284      Cr  0.27498331  0.56217875  0.36615273     1.93200
Cr285      Cr  0.31678494  0.57083895  0.34219244     1.39100
O286        O  0.29599230  0.58040655  0.35828525    -1.23500
O287        O  0.31380118  0.58822132  0.67205349    -0.85800
O288        O  0.30204228  0.54559647  0.66417649    -0.82800
C289        C  0.28165028  0.54624509  0.66791815     0.97700
O290        O  0.26880558  0.55617149  0.65621722    -0.82900
O291        O  0.25476398  0.58563186  0.62692451    -0.85500
C292        C  0.25482109  0.60455743  0.63484331     1.02200
O293        O  0.27267694  0.61304805  0.64034774    -0.78300
O294        O  0.31501055  0.61741587  0.65301902    -0.78500
C295        C  0.31535574  0.60876648  0.67011197     1.02100
O296        O  0.34521884  0.58719845  0.64045027    -0.85800
O297        O  0.32953415  0.54626962  0.62980964    -0.82900
C298        C  0.31661727  0.53088612  0.62511938     0.97700
O299        O  0.29591953  0.53342779  0.62703586    -0.82900
O300        O  0.28485902  0.56519866  0.59964940    -0.85500
C301        C  0.28544595  0.58362392  0.59107784     1.02200
O302        O  0.28739686  0.60118838  0.60107268    -0.78300
O303        O  0.33016123  0.60296751  0.61468777    -0.78500
C304        C  0.34706827  0.59801689  0.62454312     1.02100
Cr305      Cr  0.32104433  0.56767480  0.65040160     1.93700
Cr306      Cr  0.27772024  0.56142879  0.62805356     1.93200
Cr307      Cr  0.30115609  0.60641618  0.62780264     1.39100
O308        O  0.29999169  0.57855059  0.63527218    -1.23500
O309        O  0.37264748  0.29596514  0.34147110    -0.85800
O310        O  0.38067790  0.26534192  0.37121902    -0.82800
C311        C  0.38870550  0.24954814  0.36150857     0.97700
O312        O  0.40781656  0.25130636  0.35427036    -0.82900
O313        O  0.44479021  0.27147355  0.33818545    -0.85500
C314        C  0.44029179  0.28061650  0.32179910     1.02200
O315        O  0.42776530  0.29711454  0.32119475    -0.78300
O316        O  0.39313566  0.32334807  0.33121315    -0.78500
C317        C  0.37675742  0.31077473  0.32884687     1.02100
O318        O  0.38350577  0.33040509  0.36879107    -0.85800
O319        O  0.39710728  0.29928538  0.39595481    -0.82900
C320        C  0.40881265  0.28436418  0.40362339     0.97700
O321        O  0.41858604  0.27032196  0.39278587    -0.82900
O322        O  0.45405273  0.29164142  0.37590364    -0.85500
C323        C  0.46321581  0.30716280  0.36658108     1.02200
O324        O  0.45369489  0.31596719  0.35196989    -0.78300
O325        O  0.41762694  0.34038265  0.36410946    -0.78500
C326        C  0.39826414  0.34502632  0.36946968     1.02100
Cr327      Cr  0.38567609  0.29756913  0.36859736     1.93700
Cr328      Cr  0.42985351  0.27299735  0.36480008     1.93200
Cr329      Cr  0.42236324  0.31741303  0.34348518     1.39100
O330        O  0.41283901  0.29596481  0.35900445    -1.23500
O331        O  0.41239336  0.31005150  0.67221585    -0.85800
O332        O  0.45520673  0.29876196  0.66462955    -0.82800
C333        C  0.45443386  0.27840901  0.66828675     0.97700
O334        O  0.44450475  0.26570056  0.65650466    -0.82900
O335        O  0.41560644  0.25142115  0.62719907    -0.85500
C336        C  0.39656987  0.25132949  0.63493989     1.02200
O337        O  0.38755070  0.26916157  0.63975160    -0.78300
O338        O  0.38309115  0.31111623  0.65314983    -0.78500
C339        C  0.39178916  0.31133883  0.67026477     1.02100
O340        O  0.41325334  0.34172794  0.64116931    -0.85800
O341        O  0.45457787  0.32639019  0.63043272    -0.82900
C342        C  0.46998839  0.31351445  0.62565728     0.97700
O343        O  0.46750761  0.29286203  0.62758909    -0.82900
O344        O  0.43624534  0.28156594  0.60010918    -0.85500
C345        C  0.41803810  0.28260486  0.59118617     1.02200
O346        O  0.40018378  0.28469894  0.60079673    -0.78300
O347        O  0.39793394  0.32714457  0.61500525    -0.78500
C348        C  0.40251594  0.34387688  0.62523606     1.02100
Cr349      Cr  0.43301700  0.31764821  0.65083858     1.93700
Cr350      Cr  0.43959611  0.27453862  0.62843051     1.93200
Cr351      Cr  0.39442877  0.29787583  0.62770434     1.39100
O352        O  0.42228078  0.29669629  0.63548993    -1.23500
O353        O  0.88245361  0.18533308  0.65350580    -0.85800
O354        O  0.88732964  0.22675166  0.63886817    -0.82800
C355        C  0.89663525  0.24417772  0.63332910     0.97700
O356        O  0.91564367  0.24339325  0.62558206    -0.82900
O357        O  0.94492771  0.22901490  0.65479323    -0.85500
C358        C  0.95516081  0.21629392  0.66634424     1.02200
O359        O  0.95530918  0.19588158  0.66292172    -0.78300
O360        O  0.91226794  0.18640906  0.67195292    -0.78500
C361        C  0.89157883  0.18567706  0.67044131     1.02100
O362        O  0.89580630  0.16759052  0.61546473    -0.85800
O363        O  0.89863550  0.20970383  0.60019749    -0.82900
C364        C  0.91622795  0.21156331  0.59017030     0.97700
O365        O  0.93472507  0.21221736  0.59865847    -0.82900
O366        O  0.96625251  0.20053659  0.62574527    -0.85500
C367        C  0.96810265  0.17978645  0.62408434     1.02200
O368        O  0.95249874  0.16740479  0.62941381    -0.78300
O369        O  0.91109139  0.15354349  0.64182401    -0.78500
C370        C  0.90007264  0.15107990  0.62607896     1.02100
Cr371      Cr  0.89330120  0.19742635  0.62748597     1.93700
Cr372      Cr  0.93900828  0.21969885  0.62686336     1.93200
Cr373      Cr  0.93194394  0.17737810  0.65024458     1.39100
O374        O  0.92133983  0.19817223  0.63467360    -1.23500
O375        O  0.89117528  0.17334941  0.32787728    -0.85800
O376        O  0.92592058  0.20051425  0.31949847    -0.82800
C377        C  0.93988070  0.21570699  0.32135102     0.97700
O378        O  0.94509568  0.22269359  0.33844463    -0.82900
O379        O  0.90837689  0.24387943  0.35431593    -0.85500
C380        C  0.88908959  0.24609087  0.36112713     1.02200
O381        O  0.87975243  0.23006111  0.36957686    -0.78300
O382        O  0.87087874  0.20025963  0.33936499    -0.78500
C383        C  0.87446154  0.18561454  0.32645734     1.02100
O384        O  0.91542814  0.15451437  0.35972255    -0.85800
O385        O  0.95188070  0.17905979  0.34911424    -0.82900
C386        C  0.96048045  0.18522112  0.36525811     0.97700
O387        O  0.95113445  0.19982451  0.37561616    -0.82900
O388        O  0.91664413  0.22321376  0.39211128    -0.85500
C389        C  0.90606849  0.20932629  0.40238764     1.02200
O390        O  0.89457017  0.19471612  0.39403487    -0.78300
O391        O  0.88152964  0.16485542  0.36568993    -0.78500
C392        C  0.89615204  0.15005650  0.36542922     1.02100
Cr393      Cr  0.92041497  0.17856712  0.34043547     1.93700
Cr394      Cr  0.92889777  0.22071496  0.36450421     1.93200
Cr395      Cr  0.88384092  0.19764189  0.36644207     1.39100
O396        O  0.91109894  0.19901180  0.35714723    -1.23500
O397        O  0.12293746  0.81283411  0.65384572    -0.85800
O398        O  0.11992526  0.77137437  0.63923128    -0.82800
C399        C  0.11131343  0.75343188  0.63418172     0.97700
O400        O  0.09197123  0.75307362  0.62711661    -0.82900
O401        O  0.06286187  0.76556503  0.65712355    -0.85500
C402        C  0.05295285  0.77786423  0.66930683     1.24600
O403        O  0.05147159  0.79818686  0.66580094    -0.78300
O404        O  0.09411844  0.81032921  0.67342803    -0.78500
C405        C  0.11467898  0.81190266  0.67110280     1.02100
O406        O  0.10697653  0.82967464  0.61648662    -0.85800
O407        O  0.10607201  0.78782242  0.60107858    -0.82900
C408        C  0.08820851  0.78516273  0.59164007     0.97700
O409        O  0.07017828  0.78310450  0.60076352    -0.82900
O410        O  0.03893174  0.79279288  0.62884501    -0.85500
C411        C  0.03591511  0.81339450  0.62719130     1.02200
O412        O  0.05092298  0.82663342  0.63228131    -0.78300
O413        O  0.09188531  0.84297962  0.64328341    -0.78500
C414        C  0.10228713  0.84590235  0.62728879     1.02100
Cr415      Cr  0.11171978  0.80019674  0.62823747     1.93700
Cr416      Cr  0.06732530  0.77530877  0.62907892     1.93200
Cr417      Cr  0.07295853  0.81800611  0.65238151     1.39100
O418        O  0.08408064  0.79780395  0.63642235    -1.23500
O419        O  0.08532935  0.80758080  0.32215106    -0.85800
O420        O  0.04313998  0.79549875  0.33134997    -0.82800
C421        C  0.04461838  0.77525124  0.32736320     0.97700
O422        O  0.05511115  0.76275657  0.33895037    -0.82900
O423        O  0.08502155  0.74937876  0.36793888    -0.85500
C424        C  0.10377708  0.74933321  0.35974503     1.02200
O425        O  0.11234881  0.76713206  0.35422456    -0.78300
O426        O  0.11540063  0.80907630  0.34024384    -0.78500
C427        C  0.10598760  0.80909769  0.32344456     1.02100
O428        O  0.08527287  0.83953177  0.35301872    -0.85800
O429        O  0.04468639  0.82337659  0.36550901    -0.82900
C430        C  0.02975838  0.81012444  0.37071277     0.97700
O431        O  0.03255947  0.78957702  0.36846904    -0.82900
O432        O  0.06499401  0.77934923  0.39525159    -0.85500
C433        C  0.08355623  0.78084126  0.40358089     1.02200
O434        O  0.10096619  0.78320604  0.39336814    -0.78300
O435        O  0.10216793  0.82549777  0.37860097    -0.78500
C436        C  0.09696752  0.84201862  0.36835814     1.02100
Cr437      Cr  0.06551878  0.81495810  0.34427814     1.93700
Cr438      Cr  0.06071385  0.77193024  0.36699907     1.93200
Cr439      Cr  0.10545979  0.79602895  0.36614611     1.39100
O440        O  0.07732895  0.79433875  0.35932149    -1.23500
O441        O  0.81544219  0.87545863  0.65331016    -0.85800
O442        O  0.77328696  0.87955854  0.64009076    -0.82800
C443        C  0.75537257  0.88847059  0.63530954     0.97700
O444        O  0.75523756  0.90779701  0.62828459    -0.82900
O445        O  0.76962306  0.93728477  0.65742863    -0.85500
C446        C  0.78262328  0.94695919  0.66918481     1.02200
O447        O  0.80299495  0.94731295  0.66536740    -0.78300
O448        O  0.81431585  0.90443267  0.67271213    -0.78500
C449        C  0.81559004  0.88388422  0.67051675     1.02100
O450        O  0.83105529  0.89061697  0.61520762    -0.85800
O451        O  0.78867491  0.89229253  0.60130637    -0.82900
C452        C  0.78606973  0.90999887  0.59172453     0.97700
O453        O  0.78475488  0.92820981  0.60062339    -0.82900
O454        O  0.79665712  0.95966911  0.62795600    -0.85500
C455        C  0.81736246  0.96221937  0.62607443     1.02200
O456        O  0.83032387  0.94693492  0.63098003    -0.78300
O457        O  0.84594179  0.90569086  0.64133441    -0.78500
C458        C  0.84792250  0.89523715  0.62522675     1.02100
Cr459      Cr  0.80195117  0.88678627  0.62808422     1.93700
Cr460      Cr  0.77826732  0.93184161  0.62917413     1.93200
Cr461      Cr  0.82173974  0.92522927  0.65132709     1.39100
O462        O  0.80060305  0.91456778  0.63605326    -1.23500
O463        O  0.80820224  0.90239222  0.32219128    -0.85800
O464        O  0.79837756  0.94563535  0.32927619    -0.82800
C465        C  0.77788996  0.94593391  0.32598379     0.97700
O466        O  0.76492650  0.93668719  0.33804582    -0.82900
O467        O  0.75063049  0.90792984  0.36785910    -0.85500
C468        C  0.75020248  0.88865846  0.36062460     1.02200
O469        O  0.76781627  0.87941475  0.35544766    -0.78300
O470        O  0.80978335  0.87388670  0.34204153    -0.78500
C471        C  0.80976043  0.88193768  0.32470043     1.02100
O472        O  0.84061751  0.90300717  0.35286346    -0.85800
O473        O  0.82650164  0.94470203  0.36308409    -0.82900
C474        C  0.81422734  0.96067398  0.36752267     0.97700
O475        O  0.79339632  0.95878317  0.36631693    -0.82900
O476        O  0.78155877  0.92823926  0.39458671    -0.85500
C477        C  0.78218390  0.91008118  0.40359702     1.02200
O478        O  0.78366462  0.89221404  0.39401827    -0.78300
O479        O  0.82599051  0.88953658  0.37977134    -0.78500
C480        C  0.84270289  0.89298729  0.36916982     1.02100
Cr481      Cr  0.81682455  0.92320192  0.34313054     1.93700
Cr482      Cr  0.77420589  0.93149288  0.36613768     1.93200
Cr483      Cr  0.79667889  0.88596169  0.36723148     1.39100
O484        O  0.79582707  0.91352210  0.35894419    -1.23500
O485        O  0.19073541  0.11960543  0.65641679    -0.85800
O486        O  0.23208609  0.11562446  0.64155853    -0.82800
C487        C  0.24982682  0.10645208  0.63663195     0.97700
O488        O  0.24960375  0.08717008  0.62941907    -0.82900
O489        O  0.23574439  0.05765750  0.65856644    -0.85500
C490        C  0.22312143  0.04751631  0.67029273     1.02200
O491        O  0.20264633  0.04739128  0.66706280    -0.78300
O492        O  0.19285975  0.09037166  0.67540214    -0.78500
C493        C  0.19198031  0.11095869  0.67351312     1.02100
O494        O  0.17333022  0.10453496  0.61859591    -0.85800
O495        O  0.21519691  0.10300896  0.60319151    -0.82900
C496        C  0.21736063  0.08528515  0.59347404     0.97700
O497        O  0.21879667  0.06710369  0.60234084    -0.82900
O498        O  0.20734991  0.03585600  0.62973579    -0.85500
C499        C  0.18653148  0.03370207  0.62845282     1.02200
O500        O  0.17399785  0.04916232  0.63378064    -0.78300
O501        O  0.15955271  0.09028639  0.64551585    -0.78500
C502        C  0.15686378  0.10007065  0.62919497     1.02100
Cr503      Cr  0.20294899  0.10847504  0.63048757     1.93700
Cr504      Cr  0.22627923  0.06333199  0.63063962     1.93200
Cr505      Cr  0.18383731  0.07017549  0.65416067     1.39100
O506        O  0.20444299  0.08072535  0.63828139    -1.23500
O507        O  0.18241106  0.09090611  0.32431794    -0.85800
O508        O  0.19311965  0.04785929  0.33096189    -0.82800
C509        C  0.21354831  0.04789302  0.32737528     0.97700
O510        O  0.22653653  0.05737385  0.33929181    -0.82900
O511        O  0.24104936  0.08646889  0.36873785    -0.85500
C512        C  0.24111322  0.10570597  0.36151089     1.02200
O513        O  0.22323109  0.11493481  0.35709993    -0.78300
O514        O  0.18110252  0.11970570  0.34391899    -0.78500
C515        C  0.18121414  0.11142525  0.32665594     1.02100
O516        O  0.15047007  0.08964117  0.35529150    -0.85800
O517        O  0.16556304  0.04770261  0.36517286    -0.82900
C518        C  0.17854840  0.03224293  0.36963402     0.97700
O519        O  0.19925355  0.03499608  0.36822215    -0.82900
O520        O  0.21110937  0.06592639  0.39618654    -0.85500
C521        C  0.21048606  0.08408145  0.40525322     1.02200
O522        O  0.20786891  0.10189093  0.39579388    -0.78300
O523        O  0.16496562  0.10443045  0.38173779    -0.78500
C524        C  0.14826258  0.10043287  0.37120773     1.02100
Cr525      Cr  0.17450316  0.06987304  0.34528298     1.93700
Cr526      Cr  0.21776407  0.06264433  0.36757272     1.93200
Cr527      Cr  0.19443182  0.10789897  0.36907577     1.39100
O528        O  0.19556621  0.08015913  0.36083544    -1.23500
O529        O  0.80693539  0.08991257  0.17432619    -0.85800
O530        O  0.79823822  0.04641830  0.16606062    -0.82800
C531        C  0.77768555  0.04605551  0.16885314     0.97700
O532        O  0.76512760  0.05582422  0.15682027    -0.82900
O533        O  0.75125872  0.08497986  0.12735201    -0.85500
C534        C  0.75046684  0.10423961  0.13460451     1.02200
O535        O  0.76792755  0.11377913  0.13983747    -0.78300
O536        O  0.80910552  0.11890966  0.15507204    -0.78500
C537        C  0.80771720  0.11051092  0.17224504     1.02100
O538        O  0.84080344  0.09018757  0.14493853    -0.85800
O539        O  0.82764747  0.04845967  0.13331315    -0.82900
C540        C  0.81557723  0.03274653  0.12765222     0.97700
O541        O  0.79467774  0.03451972  0.12846005    -0.82900
O542        O  0.78305551  0.06556452  0.10076158    -0.85500
C543        C  0.78410468  0.08383391  0.09197520     1.02200
O544        O  0.78568730  0.10153993  0.10177976    -0.78300
O545        O  0.82742266  0.10391287  0.11763703    -0.78500
C546        C  0.84371811  0.09995554  0.12862974     1.02100
Cr547      Cr  0.81682869  0.06956699  0.15334497     1.93700
Cr548      Cr  0.77510086  0.06163249  0.12900313     1.93200
Cr549      Cr  0.79745017  0.10729120  0.12913273     1.39100
O550        O  0.79639008  0.07953308  0.13699533    -1.23500
O551        O  0.81913533  0.11833417  0.84195671    -0.85800
O552        O  0.77685722  0.11320795  0.85478793    -0.82800
C553        C  0.75915713  0.10433154  0.86023136     0.97700
O554        O  0.75951977  0.08536340  0.86807258    -0.82900
O555        O  0.77361164  0.05603251  0.83875860    -0.85500
C556        C  0.78635206  0.04657956  0.82663624     1.02200
O557        O  0.80689410  0.04649204  0.82985831    -0.78300
O558        O  0.81786285  0.08937431  0.82260525    -0.78500
C559        C  0.81909161  0.10990770  0.82475885     1.02100
O560        O  0.83465930  0.10361363  0.88003778    -0.85800
O561        O  0.79196824  0.10127131  0.89391764    -0.82900
C562        C  0.79052071  0.08360394  0.90379659     0.97700
O563        O  0.79041703  0.06525421  0.89507016    -0.82900
O564        O  0.80156509  0.03380502  0.86743814    -0.85500
C565        C  0.82232422  0.03138680  0.86888370     1.02200
O566        O  0.83502407  0.04686993  0.86394270    -0.78300
O567        O  0.84987397  0.08854658  0.85396821    -0.78500
C568        C  0.85161421  0.09932633  0.86997679     1.02100
Cr569      Cr  0.80554799  0.10684296  0.86712285     1.93700
Cr570      Cr  0.78290782  0.06148843  0.86674330     1.93200
Cr571      Cr  0.82582820  0.06864372  0.84385884     1.39100
O572        O  0.80478286  0.07900245  0.85937116    -1.23500
O573        O  0.90888766  0.80711092  0.17352882    -0.85800
O574        O  0.95166918  0.79632789  0.16461178    -0.82800
C575        C  0.95078180  0.77591098  0.16780882     0.97700
O576        O  0.94009354  0.76376956  0.15607340    -0.82900
O577        O  0.90993131  0.75101502  0.12700735    -0.85500
C578        C  0.89067664  0.75130927  0.13435385     1.02200
O579        O  0.88204501  0.76924076  0.13945023    -0.78300
O580        O  0.87947031  0.81045939  0.15479820    -0.78500
C581        C  0.88828660  0.80885125  0.17181400     1.02100
O582        O  0.90944917  0.84085889  0.14407459    -0.85800
O583        O  0.95003838  0.82539170  0.13165484    -0.82900
C584        C  0.96513911  0.81264985  0.12588586     0.97700
O585        O  0.96261242  0.79188259  0.12710007    -0.82900
O586        O  0.93059862  0.78114578  0.09998981    -0.85500
C587        C  0.91230737  0.78309905  0.09130894     1.02200
O588        O  0.89477340  0.78627936  0.10113913    -0.78300
O589        O  0.89439377  0.82804357  0.11710207    -0.78500
C590        C  0.89926467  0.84415434  0.12801065     1.02100
Cr591      Cr  0.92909363  0.81588362  0.15217385     1.93700
Cr592      Cr  0.93449793  0.77361539  0.12821986     1.93200
Cr593      Cr  0.88991346  0.79829737  0.12862476     1.39100
O594        O  0.91776779  0.79587369  0.13612888    -1.23500
O595        O  0.88417582  0.80825539  0.83986660    -0.85800
O596        O  0.88721792  0.76635765  0.85385327    -0.82800
C597        C  0.89578559  0.74848789  0.85920513     0.97700
O598        O  0.91469286  0.74845115  0.86719624    -0.82900
O599        O  0.94518237  0.76226783  0.83862314    -0.85500
C600        C  0.95570118  0.77498011  0.82722782     1.02200
O601        O  0.95655925  0.79526769  0.83114621    -0.78300
O602        O  0.91423078  0.80691090  0.82173788    -0.78500
C603        C  0.89354413  0.80815021  0.82304009     1.02100
O604        O  0.89741364  0.82474539  0.87834898    -0.85800
O605        O  0.89845772  0.78235299  0.89295266    -0.82900
C606        C  0.91584309  0.78012936  0.90318708     0.97700
O607        O  0.93441146  0.77861826  0.89488341    -0.82900
O608        O  0.96700735  0.78929991  0.86839992    -0.85500
C609        C  0.96960291  0.80991211  0.87052680     1.02200
O610        O  0.95452969  0.82296243  0.86528700    -0.78300
O611        O  0.91403383  0.83884061  0.85266596    -0.78500
C612        C  0.90278338  0.84134435  0.86826028     1.02100
Cr613      Cr  0.89409321  0.79525300  0.86577788     1.93700
Cr614      Cr  0.93898201  0.77130199  0.86662910     1.93200
Cr615      Cr  0.93391219  0.81440209  0.84395958     1.39100
O616        O  0.92222733  0.79361658  0.85891503    -1.23500
O617        O  0.18589698  0.90625481  0.17165850    -0.85800
O618        O  0.19775398  0.94888422  0.16412564    -0.82800
C619        C  0.21800555  0.94791014  0.16831529     0.97700
O620        O  0.23093885  0.93771791  0.15681715    -0.82900
O621        O  0.24504936  0.90837638  0.12712202    -0.85500
C622        C  0.24462256  0.88900773  0.13404717     1.02200
O623        O  0.22657753  0.88043892  0.13897509    -0.78300
O624        O  0.18434435  0.87711393  0.15243337    -0.78500
C625        C  0.18413812  0.88574034  0.16958714     1.02100
O626        O  0.15429638  0.90761189  0.14045001    -0.85800
O627        O  0.17061940  0.94833803  0.12967340    -0.82900
C628        C  0.18380361  0.96353368  0.12509878     0.97700
O629        O  0.20443829  0.96084780  0.12734040    -0.82900
O630        O  0.21564399  0.92958416  0.09977926    -0.85500
C631        C  0.21381768  0.91148274  0.09075664     1.02200
O632        O  0.21131374  0.89371807  0.10030459    -0.78300
O633        O  0.16885310  0.89249470  0.11422808    -0.78500
C634        C  0.15207236  0.89733238  0.12429447     1.02100
Cr635      Cr  0.17876716  0.92689294  0.15022866     1.93700
Cr636      Cr  0.22238533  0.93278187  0.12835797     1.93200
Cr637      Cr  0.19796834  0.88817296  0.12708000     1.39100
O638        O  0.19977513  0.91585790  0.13509090    -1.23500
O639        O  0.19231003  0.87379260  0.83997999    -0.85800
O640        O  0.23346662  0.88130960  0.85424566    -0.82800
C641        C  0.25041994  0.89120479  0.86013654     0.97700
O642        O  0.24873069  0.90995409  0.86822024    -0.82900
O643        O  0.23464763  0.93795859  0.83807691    -0.85500
C644        C  0.22193324  0.94671141  0.82554628     1.02200
O645        O  0.20132147  0.94598898  0.82818730    -0.78300
O646        O  0.19291801  0.90275264  0.82068187    -0.78500
C647        C  0.19282899  0.88219812  0.82279999     1.02100
O648        O  0.17426561  0.88793191  0.87745853    -0.85800
O649        O  0.21586496  0.89266789  0.89281784    -0.82900
C650        C  0.21547685  0.91050799  0.90255982     0.97700
O651        O  0.21559033  0.92874307  0.89368743    -0.82900
O652        O  0.20446817  0.95921491  0.86539588    -0.85500
C653        C  0.18359239  0.96060716  0.86619829     1.02200
O654        O  0.17185364  0.94442041  0.86118328    -0.78300
O655        O  0.15948465  0.90219706  0.85085862    -0.78500
C656        C  0.15751773  0.89184049  0.86702950     1.02100
Cr657      Cr  0.20401962  0.88611651  0.86558031     1.93700
Cr658      Cr  0.22436798  0.93251958  0.86573790     1.93200
Cr659      Cr  0.18292749  0.92308382  0.84151599     1.39100
O660        O  0.20372818  0.91388560  0.85775815    -1.23500
O661        O  0.08939071  0.18442914  0.17246801    -0.85800
O662        O  0.04700997  0.19482085  0.16336728    -0.82800
C663        C  0.04753336  0.21511311  0.16728913     0.97700
O664        O  0.05686305  0.22823363  0.15540250    -0.82900
O665        O  0.08675969  0.24253471  0.12641085    -0.85500
C666        C  0.10537388  0.24336941  0.13489331     1.02200
O667        O  0.11427996  0.22600117  0.14100454    -0.78300
O668        O  0.11951377  0.18418141  0.15450162    -0.78500
C669        C  0.11009046  0.18401499  0.17127861     1.02100
O670        O  0.09046936  0.15271696  0.14128201    -0.85800
O671        O  0.04915177  0.16701759  0.12935282    -0.82900
C672        C  0.03354180  0.17960202  0.12447468     0.97700
O673        O  0.03573143  0.20027936  0.12622413    -0.82900
O674        O  0.06808405  0.21108835  0.09930643    -0.85500
C675        C  0.08684626  0.21045526  0.09122479     1.02200
O676        O  0.10416365  0.21002820  0.10171777    -0.78300
O677        O  0.10678929  0.16786901  0.11588356    -0.78500
C678        C  0.10184497  0.15096787  0.12567489     1.02100
Cr679      Cr  0.06987221  0.17629956  0.15037771     1.93700
Cr680      Cr  0.06320394  0.21900907  0.12745276     1.93200
Cr681      Cr  0.10894895  0.19709060  0.12875280     1.39100
O682        O  0.08073610  0.19745338  0.13541537    -1.23500
O683        O  0.12640596  0.20192158  0.83938404    -0.85800
O684        O  0.11901562  0.23027984  0.87098249    -0.82800
C685        C  0.10995237  0.24643124  0.86261810     0.97700
O686        O  0.09060223  0.24444310  0.85595028    -0.82900
O687        O  0.05336902  0.22407952  0.84019996    -0.85500
C688        C  0.05735531  0.21608017  0.82317270     1.02200
O689        O  0.07026777  0.20000624  0.82126709    -0.78300
O690        O  0.10619956  0.17465950  0.82819576    -0.78500
C691        C  0.12208606  0.18791527  0.82610409     1.02100
O692        O  0.11817806  0.16547785  0.86493630    -0.85800
O693        O  0.10518379  0.19414894  0.89425753    -0.82900
C694        C  0.09388593  0.20834895  0.90335727     0.97700
O695        O  0.08269300  0.22254154  0.89384095    -0.82900
O696        O  0.04694534  0.20113205  0.87727766    -0.85500
C697        C  0.03791734  0.18569490  0.86770494     1.02200
O698        O  0.04672432  0.17832669  0.85210584    -0.78300
O699        O  0.08411306  0.15480364  0.86153516    -0.78500
C700        C  0.10378516  0.15056925  0.86616919     1.02100
Cr701      Cr  0.11492419  0.19812464  0.86669597     1.93700
Cr702      Cr  0.06983872  0.22134859  0.86616647     1.93200
Cr703      Cr  0.07755007  0.17863556  0.84217944     1.39100
O704        O  0.08723722  0.19943177  0.85835104    -1.23500
C705        C  0.08872081  0.21028182  0.06930500    -0.03800
C706        C  0.06989337  0.20761485  0.05737958    -0.09600
C707        C  0.07175450  0.20686333  0.03671576    -0.17200
C708        C  0.09240786  0.20883329  0.02766718     0.24900
C709        C  0.11124733  0.21144306  0.03939113    -0.18900
C710        C  0.10944375  0.21212025  0.06007030    -0.07800
C711        C  0.09413868  0.20851769  0.00635820    -0.14200
C712        C  0.09492613  0.20857245  0.98847846    -0.14000
C713        C  0.09508503  0.20881950  0.96711457     0.24800
C714        C  0.10645219  0.19257639  0.95658214    -0.19400
C715        C  0.10610826  0.19249359  0.93585201    -0.07900
C716        C  0.09432635  0.20866661  0.92533620    -0.03900
C717        C  0.08309925  0.22503801  0.93605721    -0.09200
C718        C  0.08349677  0.22509388  0.95680828    -0.16900
H719        H  0.05373594  0.20595348  0.06401328     0.11300
H720        H  0.05706128  0.20480466  0.02778908     0.10500
H721        H  0.12732148  0.21299519  0.03255546     0.10500
H722        H  0.12426809  0.21411357  0.06881492     0.11000
H723        H  0.11547178  0.17989295  0.96438801     0.11100
H724        H  0.11497030  0.17966903  0.92807468     0.11000
H725        H  0.07396469  0.23775652  0.92842958     0.11200
H726        H  0.07464340  0.23775739  0.96481970     0.10000
C727        C  0.11076512  0.12799185  0.87170017    -0.03800
C728        C  0.13292074  0.12390588  0.87671793    -0.09600
C729        C  0.14040882  0.10246640  0.87980917    -0.17200
C730        C  0.12591937  0.08470723  0.87802661     0.24900
C731        C  0.10365151  0.08861793  0.87378597    -0.18900
C732        C  0.09608821  0.11013045  0.87068100    -0.07800
C733        C  0.13433794  0.06254308  0.87925512    -0.14200
C734        C  0.14236240  0.04435989  0.87908367    -0.14000
C735        C  0.15261620  0.02300009  0.87752632     0.24800
C736        C  0.13975828  0.00426888  0.87414355    -0.19400
C737        C  0.14979486  0.98381434  0.87116620    -0.07900
C738        C  0.17290428  0.98178592  0.87146592    -0.03900
C739        C  0.18566995  0.00060954  0.87538553    -0.09200
C740        C  0.17558681  0.02104966  0.87836080    -0.16900
H741        H  0.14468193  0.13724299  0.87770866     0.11300
H742        H  0.15766324  0.09970612  0.88306363     0.10500
H743        H  0.09226180  0.07500614  0.87234324     0.10500
H744        H  0.07896101  0.11270394  0.86686676     0.11000
H745        H  0.12198124  0.00554441  0.87339047     0.11100
H746        H  0.13946248  0.96969836  0.86813445     0.11000
H747        H  0.20347581  0.99966780  0.87564666     0.11200
H748        H  0.18574414  0.03542102  0.88089477     0.10000
C749        C  0.17491276  0.98508828  0.11869585    -0.03800
C750        C  0.18906875  0.00286526  0.11471220    -0.09600
C751        C  0.18047611  0.02377414  0.11078850    -0.17200
C752        C  0.15766155  0.02715810  0.11073199     0.24900
C753        C  0.14347083  0.00943203  0.11408289    -0.18900
C754        C  0.15199671  0.98855015  0.11798015    -0.07800
C755        C  0.14872804  0.04899114  0.10877880    -0.14200
C756        C  0.14039690  0.06699434  0.10905501    -0.14000
C757        C  0.12964980  0.08787875  0.11187685     0.24800
C758        C  0.11378147  0.08996579  0.12678838    -0.19400
C759        C  0.10422936  0.11035837  0.13075295    -0.07900
C760        C  0.11041602  0.12908305  0.11985956    -0.03900
C761        C  0.12593845  0.12676394  0.10448240    -0.09200
C762        C  0.13553817  0.10625863  0.10055263    -0.16900
H763        H  0.20676879  0.00076834  0.11519007     0.11300
H764        H  0.19162885  0.03740006  0.10832835     0.10500
H765        H  0.12579302  0.01186560  0.11420472     0.10500
H766        H  0.14061786  0.97526749  0.12101866     0.11000
H767        H  0.10910187  0.07587906  0.13565980     0.11100
H768        H  0.09233910  0.11152998  0.14267958     0.11000
H769        H  0.13110143  0.14087145  0.09588184     0.11200
H770        H  0.14784075  0.10484212  0.08898575     0.10000
C771        C  0.21456296  0.91094314  0.06875666    -0.03800
C772        C  0.21107658  0.89110784  0.05844986    -0.09600
C773        C  0.21089937  0.89069498  0.03770934    -0.17200
C774        C  0.21423332  0.91005502  0.02694651     0.24900
C775        C  0.21790038  0.92984537  0.03703455    -0.18900
C776        C  0.21805068  0.93031481  0.05779154    -0.07800
C777        C  0.21383672  0.90960316  0.00557587    -0.14200
C778        C  0.21364971  0.90933846  0.98767937    -0.14000
C779        C  0.21382630  0.90950117  0.96630866     0.24800
C780        C  0.21451039  0.92951089  0.95613834    -0.19400
C781        C  0.21512969  0.92981533  0.93542155    -0.07900
C782        C  0.21509923  0.91005952  0.92453798    -0.03900
C783        C  0.21427736  0.88999615  0.93488497    -0.09200
C784        C  0.21364434  0.88974294  0.95563964    -0.16900
H785        H  0.20825779  0.87591794  0.06640416     0.11300
H786        H  0.20805583  0.87527972  0.03007050     0.10500
H787        H  0.22052974  0.94493807  0.02886000     0.10500
H788        H  0.22074565  0.94585934  0.06523876     0.11000
H789        H  0.21464195  0.94490346  0.96423057     0.11100
H790        H  0.21564342  0.94554369  0.92794027     0.11000
H791        H  0.21409938  0.87451002  0.92696028     0.11200
H792        H  0.21309172  0.87414794  0.96335834     0.10000
C793        C  0.99104865  0.81884982  0.87744446    -0.03800
C794        C  0.00965015  0.80514045  0.87895826    -0.09600
C795        C  0.03051986  0.81408656  0.88264785    -0.17200
C796        C  0.03308557  0.83681301  0.88504593     0.24900
C797        C  0.01450704  0.85043166  0.88457341    -0.18900
C798        C  0.99364771  0.84154367  0.88081228    -0.07800
C799        C  0.05485026  0.84636135  0.88611526    -0.14200
C800        C  0.07289656  0.85469949  0.88510758    -0.14000
C801        C  0.09406475  0.86494000  0.88183170     0.24800
C802        C  0.09578505  0.88255182  0.86857664    -0.19400
C803        C  0.11637227  0.89162887  0.86414786    -0.07900
C804        C  0.13560826  0.88332303  0.87301908    -0.03900
C805        C  0.13371625  0.86598657  0.88672766    -0.09200
C806        C  0.11308064  0.85678465  0.89101440    -0.16900
H807        H  0.00825043  0.78762099  0.87642535     0.11300
H808        H  0.04475338  0.80335848  0.88291223     0.10500
H809        H  0.01624246  0.86804130  0.88637654     0.10500
H810        H  0.97967855  0.85255072  0.87984763     0.11000
H811        H  0.08123076  0.88900319  0.86133974     0.11100
H812        H  0.11726682  0.90498639  0.85357861     0.11000
H813        H  0.14823735  0.85912164  0.89368398     0.11200
H814        H  0.11201239  0.84308657  0.90121590     0.10000
C815        C  0.98638674  0.82229055  0.11918698    -0.03800
C816        C  0.98871004  0.84527239  0.11768903    -0.09600
C817        C  0.00918411  0.85472283  0.11348560    -0.17200
C818        C  0.02771850  0.84143071  0.11064279     0.24900
C819        C  0.02548055  0.81851394  0.11148656    -0.18900
C820        C  0.00495065  0.80898797  0.11568011    -0.07800
C821        C  0.04917105  0.85144671  0.10834945    -0.14200
C822        C  0.06696290  0.86040387  0.10822085    -0.14000
C823        C  0.08797654  0.87132262  0.11044962     0.24800
C824        C  0.10632813  0.86476363  0.09929561    -0.19400
C825        C  0.12711341  0.87395815  0.10308113    -0.07900
C826        C  0.12981540  0.88972353  0.11819336    -0.03900
C827        C  0.11109686  0.89681009  0.12873678    -0.09200
C828        C  0.09039278  0.88769204  0.12488235    -0.16900
H829        H  0.97480532  0.85604050  0.12028337     0.11300
H830        H  0.01066219  0.87245837  0.11297215     0.10500
H831        H  0.03971018  0.80802286  0.10942236     0.10500
H832        H  0.00377035  0.79127766  0.11678929     0.11000
H833        H  0.10470841  0.85209851  0.08808829     0.11100
H834        H  0.14117723  0.86811264  0.09472774     0.11000
H835        H  0.11254220  0.90896763  0.14040555     0.11200
H836        H  0.07636186  0.89295037  0.13361175     0.10000
C837        C  0.91441396  0.77914925  0.92513889    -0.03800
C838        C  0.89386401  0.77783524  0.93473791    -0.09600
C839        C  0.89262085  0.77731279  0.95547315    -0.17200
C840        C  0.91185830  0.77818262  0.96690181     0.24900
C841        C  0.93235917  0.77947531  0.95747762    -0.18900
C842        C  0.93365518  0.77991209  0.93676862    -0.07800
C843        C  0.91063756  0.77799200  0.98827746    -0.14200
C844        C  0.91017357  0.77814971  0.00618969    -0.14000
C845        C  0.91036364  0.77877068  0.02758875     0.24800
C846        C  0.92934493  0.77260353  0.03795109    -0.19400
C847        C  0.92991299  0.77391068  0.05865740    -0.07900
C848        C  0.91143210  0.78133493  0.06936104    -0.03900
C849        C  0.89230528  0.78721662  0.05884121    -0.09200
C850        C  0.89182033  0.78600171  0.03809444    -0.16900
H851        H  0.87874901  0.77721518  0.92623566     0.11300
H852        H  0.87665201  0.77632574  0.96258637     0.10500
H853        H  0.94736504  0.78022084  0.96614522     0.10500
H854        H  0.94972525  0.78105457  0.92987675     0.11000
H855        H  0.94379749  0.76696293  0.03001233     0.11100
H856        H  0.94485658  0.76913465  0.06628105     0.11000
H857        H  0.87782517  0.79302563  0.06661828     0.11200
H858        H  0.87703892  0.79085871  0.03024575     0.10000
C859        C  0.83183438  0.00981634  0.87491930    -0.03800
C860        C  0.85482706  0.00665199  0.87519566    -0.09600
C861        C  0.86380502  0.98579827  0.87873100    -0.17200
C862        C  0.85002090  0.96772155  0.88213216     0.24900
C863        C  0.82715057  0.97085069  0.88257041    -0.18900
C864        C  0.81812071  0.99171028  0.87902720    -0.07800
C865        C  0.85929658  0.94583183  0.88375652    -0.14200
C866        C  0.86735549  0.92760527  0.88347155    -0.14000
C867        C  0.87734724  0.90613562  0.88093910     0.24800
C868        C  0.87144094  0.88833698  0.89305244    -0.19400
C869        C  0.88020402  0.86731157  0.88946328    -0.07900
C870        C  0.89496565  0.86379631  0.87365361    -0.03900
C871        C  0.90120036  0.88193935  0.86195593    -0.09200
C872        C  0.89246928  0.90283573  0.86556167    -0.16900
H873        H  0.86590827  0.02016574  0.87210113     0.11300
H874        H  0.88151359  0.98367321  0.87828220     0.10500
H875        H  0.81624905  0.95704601  0.88512387     0.10500
H876        H  0.80038081  0.99351049  0.87892943     0.11000
H877        H  0.85974285  0.89060319  0.90500974     0.11100
H878        H  0.87500987  0.85374009  0.89872291     0.11000
H879        H  0.91250634  0.87992882  0.84966615     0.11200
H880        H  0.89721194  0.91637825  0.85605342     0.10000
C881        C  0.87340715  0.10830893  0.87597324    -0.03800
C882        C  0.89279078  0.10085987  0.86671116    -0.09600
C883        C  0.91305028  0.11096584  0.87063411    -0.17200
C884        C  0.91432510  0.12876719  0.88378399     0.24900
C885        C  0.89522044  0.13593471  0.89349889    -0.18900
C886        C  0.87492257  0.12571885  0.88970386    -0.07800
C887        C  0.93504951  0.14023801  0.88627214    -0.14200
C888        C  0.95292691  0.14907340  0.88618213    -0.14000
C889        C  0.97479079  0.15794994  0.88309552     0.24800
C890        C  0.98175425  0.17751503  0.89223157    -0.19400
C891        C  0.00258661  0.18643137  0.88781770    -0.07900
C892        C  0.01656064  0.17595173  0.87407427    -0.03900
C893        C  0.00951764  0.15607143  0.86542395    -0.09200
C894        C  0.98891259  0.14720368  0.86990342    -0.16900
H895        H  0.89222565  0.08751575  0.85608321     0.11300
H896        H  0.92766512  0.10523620  0.86299304     0.10500
H897        H  0.89590790  0.14972850  0.90364900     0.10500
H898        H  0.86029939  0.13197417  0.89696550     0.11000
H899        H  0.97097513  0.18605616  0.90245673     0.11100
H900        H  0.00749325  0.20175103  0.89470366     0.11000
H901        H  0.01985492  0.14742225  0.85490853     0.11200
H902        H  0.98381098  0.13209105  0.86272898     0.10000
C903        C  0.89195601  0.86681383  0.12289833    -0.03800
C904        C  0.87676449  0.87058960  0.10749438    -0.09600
C905        C  0.86830859  0.89173968  0.10413688    -0.17200
C906        C  0.87500643  0.90945082  0.11602266     0.24900
C907        C  0.89064102  0.90593194  0.13094809    -0.18900
C908        C  0.89902804  0.88484183  0.13437664    -0.07800
C909        C  0.86507306  0.93096157  0.11377295    -0.14200
C910        C  0.85653042  0.94895312  0.11341716    -0.14000
C911        C  0.84616311  0.97035526  0.11478869     0.24800
C912        C  0.85904373  0.98932940  0.11681972    -0.19400
C913        C  0.84906423  0.00976771  0.12019501    -0.07900
C914        C  0.82597651  0.01159418  0.12162115    -0.03900
C915        C  0.81313161  0.99257720  0.11880040    -0.09200
C916        C  0.82315847  0.97213731  0.11547349    -0.16900
H917        H  0.87091302  0.85709837  0.09843164     0.11300
H918        H  0.85618824  0.89417091  0.09256025     0.10500
H919        H  0.89598979  0.91942510  0.14027553     0.10500
H920        H  0.91072634  0.88258261  0.14632129     0.11000
H921        H  0.87684621  0.98824594  0.11635739     0.11100
H922        H  0.85947730  0.02404008  0.12224545     0.11000
H923        H  0.79535358  0.99334192  0.11984944     0.11200
H924        H  0.81296122  0.95761790  0.11398702     0.10000
C925        C  0.86614621  0.10775372  0.12329800    -0.03800
C926        C  0.88369184  0.10479758  0.13668851    -0.09600
C927        C  0.90454899  0.11336757  0.13259699    -0.17200
C928        C  0.90834519  0.12498521  0.11504066     0.24900
C929        C  0.89115538  0.12763816  0.10136814    -0.18900
C930        C  0.87017041  0.11907467  0.10545819    -0.07800
C931        C  0.92972443  0.13472473  0.11167560    -0.14200
C932        C  0.94791973  0.14274450  0.11080637    -0.14000
C933        C  0.96977190  0.15207048  0.11192374     0.24800
C934        C  0.97260833  0.17489820  0.11256390    -0.19400
C935        C  0.99354300  0.18390015  0.11575293    -0.07900
C936        C  0.01197150  0.17017580  0.11846922    -0.03900
C937        C  0.00906924  0.14726741  0.11713194    -0.09200
C938        C  0.98812472  0.13831118  0.11390560    -0.16900
H939        H  0.88122748  0.09620910  0.15056900     0.11300
H940        H  0.91766613  0.11121030  0.14331440     0.10500
H941        H  0.89386763  0.13660676  0.08771732     0.10500
H942        H  0.85704041  0.12162912  0.09484475     0.11000
H943        H  0.95854519  0.18574063  0.11116768     0.11100
H944        H  0.99515034  0.20158754  0.11677472     0.11000
H945        H  0.02286189  0.13622641  0.11919055     0.11200
H946        H  0.98615649  0.12061965  0.11353882     0.10000
C947        C  0.78326160  0.08460454  0.06996411    -0.03800
C948        C  0.78526734  0.10472715  0.05981983    -0.09600
C949        C  0.78487195  0.10536561  0.03906155    -0.17200
C950        C  0.78244113  0.08594276  0.02812368     0.24900
C951        C  0.78029568  0.06587585  0.03807746    -0.18900
C952        C  0.78071129  0.06518533  0.05882377    -0.07800
C953        C  0.78264181  0.08649047  0.00671534    -0.14200
C954        C  0.78334694  0.08648734  0.98880341    -0.14000
C955        C  0.78481669  0.08584390  0.96743627     0.24800
C956        C  0.78832381  0.06580555  0.95772241    -0.19400
C957        C  0.79010918  0.06507992  0.93704377    -0.07900
C958        C  0.78849973  0.08444204  0.92572994    -0.03900
C959        C  0.78498259  0.10453166  0.93561608    -0.09200
C960        C  0.78310480  0.10519924  0.95631874    -0.16900
H961        H  0.78729421  0.11997543  0.06790933     0.11300
H962        H  0.78660469  0.12099740  0.03154641     0.10500
H963        H  0.77844862  0.05071993  0.02979490     0.10500
H964        H  0.77913086  0.04942480  0.06612624     0.11000
H965        H  0.78975075  0.05072076  0.96614456     0.11100
H966        H  0.79290094  0.04936197  0.92992918     0.11000
H967        H  0.78361216  0.11971945  0.92735657     0.11200
H968        H  0.78041135  0.12081932  0.96365159     0.10000
C969        C  0.22572698  0.95949769  0.18653063    -0.03800
C970        C  0.21170268  0.97503435  0.19550917    -0.09600
C971        C  0.21742143  0.98519154  0.21333524    -0.17200
C972        C  0.23726794  0.98012908  0.22277138     0.24900
C973        C  0.25168704  0.96495492  0.21386156    -0.18900
C974        C  0.24599099  0.95475554  0.19576348    -0.07800
C975        C  0.24174382  0.99027804  0.24185247    -0.14200
C976        C  0.24103256  0.99999001  0.25757302    -0.14000
C977        C  0.23500974  0.01212205  0.27532681     0.24800
C978        C  0.25075598  0.02032201  0.28870980    -0.19400
C979        C  0.24406337  0.03222860  0.30563333    -0.07900
C980        C  0.22153424  0.03600289  0.30937287    -0.03900
C981        C  0.20601427  0.02775098  0.29572708    -0.09200
C982        C  0.21267880  0.01600743  0.27897106    -0.16900
H983        H  0.19603947  0.97924732  0.18884024     0.11300
H984        H  0.20608756  0.99684081  0.21995737     0.10500
H985        H  0.26710807  0.96079222  0.22099293     0.10500
H986        H  0.25709228  0.94281067  0.18929550     0.11000
H987        H  0.26812903  0.01752854  0.28609062     0.11100
H988        H  0.25643242  0.03829553  0.31582591     0.11000
H989        H  0.18854636  0.03033964  0.29797202     0.11200
H990        H  0.20028911  0.00991752  0.26878151     0.10000
C991        C  0.17909257  0.12567343  0.30905316    -0.03800
C992        C  0.18259989  0.11688714  0.29002019    -0.09600
C993        C  0.17928358  0.12977275  0.27320861    -0.17200
C994        C  0.17241965  0.15158763  0.27514910     0.24900
C995        C  0.16938817  0.16069889  0.29402524    -0.18900
C996        C  0.17282795  0.14783971  0.31093341    -0.07800
C997        C  0.16636118  0.16362240  0.25769368    -0.14200
C998        C  0.15901314  0.17114148  0.24258592    -0.14000
C999        C  0.14746023  0.17695280  0.22478593     0.24800
C1000       C  0.15830442  0.17716718  0.20646610    -0.19400
C1001       C  0.14626634  0.18003428  0.18896524    -0.07900
C1002       C  0.12323706  0.18252898  0.18966601    -0.03900
C1003       C  0.11264756  0.18295330  0.20821768    -0.09200
C1004       C  0.12469065  0.18014602  0.22562466    -0.16900
H1005       H  0.18754800  0.09992012  0.28808967     0.11300
H1006       H  0.18146980  0.12251698  0.25865662     0.10500
H1007       H  0.16381647  0.17751542  0.29565811     0.10500
H1008       H  0.16996567  0.15502941  0.32540393     0.11000
H1009       H  0.17592235  0.17449812  0.20566854     0.11100
H1010       H  0.15488301  0.17972001  0.17490644     0.11000
H1011       H  0.09496593  0.18497605  0.20928995     0.11200
H1012       H  0.11612900  0.17981060  0.23972467     0.10000
C1013       C  0.21839432  0.08580717  0.57145760    -0.03800
C1014       C  0.21675544  0.10579107  0.56105438    -0.09600
C1015       C  0.21729885  0.10608315  0.54027768    -0.17200
C1016       C  0.21949206  0.08644437  0.52959342     0.24900
C1017       C  0.22124459  0.06651966  0.53981958    -0.18900
C1018       C  0.22070619  0.06617831  0.56056345    -0.07800
C1019       C  0.21949020  0.08660974  0.50816644    -0.14200
C1020       C  0.21894940  0.08634261  0.49024321    -0.14000
C1021       C  0.21755117  0.08575009  0.46885648     0.24800
C1022       C  0.21573503  0.06560867  0.45891501    -0.19400
C1023       C  0.21361005  0.06502691  0.43823616    -0.07900
C1024       C  0.21317662  0.08463063  0.42716469    -0.03900
C1025       C  0.21522622  0.10478856  0.43728363    -0.09200
C1026       C  0.21742365  0.10531981  0.45795537    -0.16900
H1027       H  0.21492526  0.12118608  0.56895183     0.11300
H1028       H  0.21587270  0.12161580  0.53254976     0.10500
H1029       H  0.22289352  0.05120102  0.53175000     0.10500
H1030       H  0.22197292  0.05050064  0.56805696     0.11000
H1031       H  0.21577919  0.05034045  0.46716365     0.11100
H1032       H  0.21207407  0.04923566  0.43094657     0.11000
H1033       H  0.21507089  0.12017575  0.42923669     0.11200
H1034       H  0.21882361  0.12101706  0.46544800     0.10000
C1035       C  0.23051090  0.95852624  0.80789282    -0.03800
C1036       C  0.25312426  0.95919769  0.80322167    -0.09600
C1037       C  0.26045969  0.97021669  0.78610958    -0.17200
C1038       C  0.24524836  0.98067859  0.77361256     0.24900
C1039       C  0.22285199  0.98016177  0.77833450    -0.18900
C1040       C  0.21554784  0.96923738  0.79523347    -0.07800
C1041       C  0.25174288  0.99171695  0.75559140    -0.14200
C1042       C  0.25189161  0.00129278  0.73989603    -0.14000
C1043       C  0.24587335  0.01218797  0.72166977     0.24800
C1044       C  0.22422822  0.00994925  0.71492649    -0.19400
C1045       C  0.21715795  0.02122835  0.69812704    -0.07900
C1046       C  0.23162358  0.03504117  0.68759965    -0.03900
C1047       C  0.25355923  0.03694172  0.69416794    -0.09200
C1048       C  0.26063291  0.02561470  0.71119764    -0.16900
H1049       H  0.26504117  0.95110024  0.81265806     0.11300
H1050       H  0.27786203  0.97045679  0.78259155     0.10500
H1051       H  0.21090578  0.98813525  0.76880902     0.10500
H1052       H  0.19804266  0.96914582  0.79830833     0.11000
H1053       H  0.21262143  0.99968455  0.72288484     0.11100
H1054       H  0.20019876  0.01922605  0.69349123     0.11000
H1055       H  0.26506152  0.04745399  0.68639293     0.11200
H1056       H  0.27742640  0.02756204  0.71631526     0.10000
C1057       C  0.19159861  0.12488115  0.69147200    -0.03800
C1058       C  0.18942212  0.14784001  0.69003916    -0.09600
C1059       C  0.18763918  0.16068059  0.70717925    -0.17200
C1060       C  0.18819368  0.15072637  0.72586934     0.24900
C1061       C  0.19113866  0.12801285  0.72741907    -0.18900
C1062       C  0.19288866  0.11516325  0.71035894    -0.07800
C1063       C  0.18288357  0.16312631  0.74333443    -0.14200
C1064       C  0.17505921  0.17121986  0.75801470    -0.14000
C1065       C  0.16189075  0.17760882  0.77471687     0.24800
C1066       C  0.13937871  0.17287351  0.77431692    -0.19400
C1067       C  0.12640942  0.17694771  0.79092531    -0.07900
C1068       C  0.13576144  0.18593671  0.80817899    -0.03900
C1069       C  0.15824599  0.19140763  0.80832861    -0.09200
C1070       C  0.17133324  0.18707608  0.79165294    -0.16900
H1071       H  0.18850177  0.15579872  0.67570908     0.11300
H1072       H  0.18509739  0.17823720  0.70584153     0.10500
H1073       H  0.19132345  0.12012566  0.74181940     0.10500
H1074       H  0.19470393  0.09755276  0.71198338     0.11000
H1075       H  0.13193490  0.16549448  0.76130410     0.11100
H1076       H  0.10908224  0.17272643  0.79039069     0.11000
H1077       H  0.16580695  0.19820197  0.82152463     0.11200
H1078       H  0.18880284  0.19064493  0.79211673     0.10000
C1079       C  0.87457200  0.81003975  0.18986109    -0.03800
C1080       C  0.85230235  0.81623991  0.18870970    -0.09600
C1081       C  0.83994556  0.81917125  0.20599336    -0.17200
C1082       C  0.84964367  0.81572403  0.22454798     0.24900
C1083       C  0.87151598  0.80869300  0.22579621    -0.18900
C1084       C  0.88392339  0.80583854  0.20856656    -0.07800
C1085       C  0.83809141  0.82181409  0.24227254    -0.14200
C1086       C  0.83004671  0.82952973  0.25701589    -0.14000
C1087       C  0.82259339  0.84154801  0.27404755     0.24800
C1088       C  0.82552752  0.83300636  0.29311487    -0.19400
C1089       C  0.82058835  0.84588495  0.30970365    -0.07900
C1090       C  0.81289482  0.86752421  0.30733158    -0.03900
C1091       C  0.80944732  0.87572499  0.28809907    -0.09200
C1092       C  0.81425942  0.86278606  0.27157261    -0.16900
H1093       H  0.84465095  0.81954770  0.17451941     0.11300
H1094       H  0.82307059  0.82482574  0.20490797     0.10500
H1095       H  0.87920754  0.80614523  0.24010980     0.10500
H1096       H  0.90098075  0.80086097  0.20992394     0.11000
H1097       H  0.83219917  0.81665480  0.29515940     0.11100
H1098       H  0.82350888  0.83918940  0.32434164     0.11000
H1099       H  0.80347283  0.89229986  0.28581824     0.11200
H1100       H  0.81210160  0.86958890  0.25685595     0.10000
C1101       C  0.76906463  0.03349396  0.18607332    -0.03800
C1102       C  0.74835932  0.03794631  0.19457704    -0.09600
C1103       C  0.74169996  0.02703777  0.21198492    -0.17200
C1104       C  0.75555424  0.01139808  0.22085919     0.24900
C1105       C  0.77580393  0.00647464  0.21203525    -0.18900
C1106       C  0.78251474  0.01740512  0.19489374    -0.07800
C1107       C  0.75022724  0.00106677  0.23959012    -0.14200
C1108       C  0.75037920  0.99172222  0.25543770    -0.14000
C1109       C  0.75629335  0.98052939  0.27360687     0.24800
C1110       C  0.77860749  0.97902579  0.27845367    -0.19400
C1111       C  0.78531643  0.96787531  0.29544873    -0.07900
C1112       C  0.76984433  0.95786417  0.30811960    -0.03900
C1113       C  0.74731417  0.95951959  0.30332299    -0.09200
C1114       C  0.74057207  0.97079710  0.28611841    -0.16900
H1115       H  0.73770447  0.05030946  0.18816794     0.11300
H1116       H  0.72601615  0.03110419  0.21870041     0.10500
H1117       H  0.78671555  0.99447655  0.21869563     0.10500
H1118       H  0.79847536  0.01343450  0.18867136     0.11000
H1119       H  0.79096084  0.98639903  0.26894826     0.11100
H1120       H  0.80278786  0.96703864  0.29857497     0.11000
H1121       H  0.73499331  0.95204688  0.31276599     0.11200
H1122       H  0.72321473  0.97179584  0.28253985     0.10000
C1123       C  0.78436710  0.90930903  0.56982112    -0.03800
C1124       C  0.77451641  0.92674117  0.55941028    -0.09600
C1125       C  0.77323631  0.92627977  0.53869716    -0.17200
C1126       C  0.78195599  0.90851349  0.52808065     0.24900
C1127       C  0.79180795  0.89108085  0.53832228    -0.18900
C1128       C  0.79291158  0.89140426  0.55906434    -0.07800
C1129       C  0.78100367  0.90834163  0.50669805    -0.14200
C1130       C  0.78042231  0.90847119  0.48879167    -0.14000
C1131       C  0.78018535  0.90874732  0.46739303     0.24800
C1132       C  0.78552869  0.88974356  0.45671652    -0.19400
C1133       C  0.78589504  0.89010950  0.43597029    -0.07900
C1134       C  0.78103450  0.90956412  0.42557452    -0.03900
C1135       C  0.77551707  0.92855468  0.43642811    -0.09200
C1136       C  0.77504400  0.92811119  0.45718735    -0.16900
H1137       H  0.76771683  0.94069462  0.56729030     0.11300
H1138       H  0.76555667  0.93985530  0.53095433     0.10500
H1139       H  0.79869110  0.87727405  0.53027841     0.10500
H1140       H  0.80074431  0.87782644  0.56666795     0.11000
H1141       H  0.78957961  0.87466918  0.46443136     0.11100
H1142       H  0.79029708  0.87523491  0.42808157     0.11000
H1143       H  0.77162360  0.94376524  0.42888476     0.11200
H1144       H  0.77086246  0.94292671  0.46527733     0.10000
C1145       C  0.81833108  0.86967865  0.68812246    -0.03800
C1146       C  0.81828886  0.87891574  0.70724836    -0.09600
C1147       C  0.82276798  0.86590932  0.72378450    -0.17200
C1148       C  0.82728954  0.84352365  0.72147111     0.24900
C1149       C  0.82653126  0.83396098  0.70260651    -0.18900
C1150       C  0.82198944  0.84694932  0.68600163    -0.07800
C1151       C  0.83489233  0.83117002  0.73825079    -0.14200
C1152       C  0.84335101  0.82333521  0.75274983    -0.14000
C1153       C  0.85536612  0.81711481  0.77019672     0.24800
C1154       C  0.87798173  0.81299976  0.76886786    -0.19400
C1155       C  0.89035340  0.80961327  0.78604626    -0.07900
C1156       C  0.88022582  0.81036788  0.80480422    -0.03900
C1157       C  0.85736133  0.81390665  0.80595182    -0.09200
C1158       C  0.84503237  0.81733435  0.78873406    -0.16900
H1159       H  0.81538709  0.89631348  0.70940743     0.11300
H1160       H  0.82343166  0.87347945  0.73832725     0.10500
H1161       H  0.83013690  0.81665726  0.70065948     0.10500
H1162       H  0.82202669  0.83933593  0.67147917     0.11000
H1163       H  0.88616688  0.81300873  0.75458628     0.11100
H1164       H  0.90790307  0.80683748  0.78465122     0.11000
H1165       H  0.84908250  0.81455561  0.82016507     0.11200
H1166       H  0.82756779  0.82073770  0.78992071     0.10000
C1167       C  0.77776732  0.03493052  0.80877437    -0.03800
C1168       C  0.79259009  0.02371732  0.79629755    -0.09600
C1169       C  0.78522739  0.01292693  0.77927488    -0.17200
C1170       C  0.76289797  0.01302235  0.77421024     0.24900
C1171       C  0.74782756  0.02399336  0.78653865    -0.18900
C1172       C  0.75521929  0.03487389  0.80375592    -0.07800
C1173       C  0.75630829  0.00204660  0.75606840    -0.14200
C1174       C  0.75581961  0.99235017  0.74036491    -0.14000
C1175       C  0.76149789  0.98102906  0.72214931     0.24800
C1176       C  0.74566978  0.97121902  0.70977038    -0.19400
C1177       C  0.75225166  0.96004507  0.69241619    -0.07900
C1178       C  0.77472739  0.95860516  0.68731154    -0.03900
C1179       C  0.79029821  0.96860498  0.69990351    -0.09200
C1180       C  0.78375339  0.97963553  0.71704380    -0.16900
H1181       H  0.81003280  0.02331496  0.79961680     0.11300
H1182       H  0.79709096  0.00456285  0.76992203     0.10500
H1183       H  0.73047972  0.02425192  0.78281594     0.10500
H1184       H  0.74337586  0.04333593  0.81302617     0.11000
H1185       H  0.72835434  0.97212299  0.71353688     0.11100
H1186       H  0.73984879  0.95255406  0.68306110     0.11000
H1187       H  0.80773112  0.96788735  0.69657869     0.11200
H1188       H  0.79619610  0.98705813  0.72643477     0.10000
C1189       C  0.96296633  0.76690527  0.18510365    -0.03800
C1190       C  0.97923086  0.77994104  0.19420869    -0.09600
C1191       C  0.98993976  0.77283352  0.21132346    -0.17200
C1192       C  0.98465043  0.75258477  0.21984270     0.24900
C1193       C  0.96880233  0.73912544  0.21071745    -0.18900
C1194       C  0.95809309  0.74619685  0.19332882    -0.07800
C1195       C  0.99468206  0.74701060  0.23863913    -0.14200
C1196       C  0.00348572  0.74716317  0.25474525    -0.14000
C1197       C  0.01326452  0.75294821  0.27361219     0.24800
C1198       C  0.02801273  0.73900214  0.28354375    -0.19400
C1199       C  0.03799906  0.74586043  0.30135217    -0.07900
C1200       C  0.03344847  0.76680788  0.30927000    -0.03900
C1201       C  0.01849300  0.78048662  0.29918973    -0.09200
C1202       C  0.00852655  0.77361055  0.28161708    -0.16900
H1203       H  0.98352713  0.79589282  0.18824033     0.11300
H1204       H  0.00205908  0.78345954  0.21821660     0.10500
H1205       H  0.96441647  0.72345982  0.21722321     0.10500
H1206       H  0.94559226  0.73584086  0.18669713     0.11000
H1207       H  0.03198346  0.72301860  0.27743625     0.11100
H1208       H  0.04956028  0.73502822  0.30867793     0.11000
H1209       H  0.01455553  0.79669587  0.30480826     0.11200
H1210       H  0.99728303  0.78462801  0.27408245     0.10000
C1211       C  0.18062308  0.87197062  0.18733461    -0.03800
C1212       C  0.18094589  0.88160057  0.20630969    -0.09600
C1213       C  0.17570312  0.86919591  0.22302493    -0.17200
C1214       C  0.17014330  0.84701467  0.22104914     0.24900
C1215       C  0.17047809  0.83705257  0.20233578    -0.18900
C1216       C  0.17576968  0.84944613  0.18553755    -0.07800
C1217       C  0.16240044  0.83519615  0.23808434    -0.14200
C1218       C  0.15431431  0.82737757  0.25276159    -0.14000
C1219       C  0.14303401  0.82055417  0.27041718     0.24800
C1220       C  0.15313132  0.82295367  0.28894055    -0.19400
C1221       C  0.14128837  0.81857503  0.30626144    -0.07900
C1222       C  0.11912719  0.81195178  0.30520564    -0.03900
C1223       C  0.10931276  0.80902808  0.28649032    -0.09200
C1224       C  0.12121632  0.81331526  0.26921260    -0.16900
H1225       H  0.18471644  0.89887007  0.20821886     0.11300
H1226       H  0.17539410  0.87707069  0.23744547     0.10500
H1227       H  0.16607935  0.81989563  0.20066697     0.10500
H1228       H  0.17541908  0.84157273  0.17113159     0.11000
H1229       H  0.16996282  0.82874958  0.29001231     0.11100
H1230       H  0.14926342  0.82101618  0.32045753     0.11000
H1231       H  0.09231093  0.80383084  0.28520030     0.11200
H1232       H  0.11321778  0.81155316  0.25493503     0.10000
C1233       C  0.00824217  0.81864587  0.37781233    -0.03800
C1234       C  0.99026033  0.80433238  0.38053726    -0.09600
C1235       C  0.96923574  0.81265802  0.38461756    -0.17200
C1236       C  0.96592255  0.83536491  0.38619393     0.24900
C1237       C  0.98390857  0.84963449  0.38444827    -0.18900
C1238       C  0.00491564  0.84136633  0.38031192    -0.07800
C1239       C  0.94393320  0.84423040  0.38765889    -0.14200
C1240       C  0.92591309  0.85258984  0.38676433    -0.14000
C1241       C  0.90518286  0.86350387  0.38320539     0.24800
C1242       C  0.90274324  0.87636811  0.36616887    -0.19400
C1243       C  0.88263500  0.88650552  0.36200916    -0.07900
C1244       C  0.86451244  0.88390825  0.37481572    -0.03900
C1245       C  0.86717245  0.87124381  0.39212356    -0.09200
C1246       C  0.88739924  0.86109678  0.39627743    -0.16900
H1247       H  0.99223870  0.78676026  0.37872561     0.11300
H1248       H  0.95545082  0.80143479  0.38584888     0.10500
H1249       H  0.98155916  0.86724159  0.38556980     0.10500
H1250       H  0.01838807  0.85283116  0.37838838     0.11000
H1251       H  0.91635026  0.87834937  0.35592322     0.11100
H1252       H  0.88117589  0.89601855  0.34851143     0.11000
H1253       H  0.85352520  0.86881958  0.40222725     0.11200
H1254       H  0.88906790  0.85116695  0.40951407     0.10000
C1255       C  0.10570932  0.86426016  0.37318245    -0.03800
C1256       C  0.12112858  0.86747329  0.38852552    -0.09600
C1257       C  0.13082077  0.88818264  0.39154284    -0.17200
C1258       C  0.12520789  0.90594943  0.37930474     0.24900
C1259       C  0.10958064  0.90294816  0.36430008    -0.18900
C1260       C  0.09991693  0.88235797  0.36126437    -0.07800
C1261       C  0.13568153  0.92718435  0.38157445    -0.14200
C1262       C  0.14372753  0.94539192  0.38190808    -0.14000
C1263       C  0.15255521  0.96745481  0.38066510     0.24800
C1264       C  0.13829746  0.98541980  0.37868168    -0.19400
C1265       C  0.14671862  0.00662774  0.37583902    -0.07900
C1266       C  0.16960254  0.01023426  0.37490889    -0.03900
C1267       C  0.18382301  0.99216046  0.37747656    -0.09200
C1268       C  0.17535538  0.97095557  0.38028476    -0.16900
H1269       H  0.12607676  0.85389239  0.39787819     0.11300
H1270       H  0.14291195  0.89023990  0.40320789     0.10500
H1271       H  0.10507401  0.91649429  0.35470720     0.10500
H1272       H  0.08820385  0.88053294  0.34926716     0.11000
H1273       H  0.12062477  0.98296938  0.37886850     0.11100
H1274       H  0.13529007  0.02010470  0.37385979     0.11000
H1275       H  0.20151059  0.99428641  0.37674578     0.11200
H1276       H  0.18660208  0.95723011  0.38170840     0.10000
C1277       C  0.86997570  0.88714415  0.61909419    -0.03800
C1278       C  0.88896352  0.89462938  0.62897754    -0.09600
C1279       C  0.90950625  0.88518196  0.62510655    -0.17200
C1280       C  0.91147473  0.86805249  0.61135281     0.24900
C1281       C  0.89282184  0.86099800  0.60087725    -0.18900
C1282       C  0.87220205  0.87054656  0.60465330    -0.07800
C1283       C  0.93242097  0.85704081  0.60911214    -0.14200
C1284       C  0.95036688  0.84842202  0.60932122    -0.14000
C1285       C  0.97214988  0.83923428  0.61176973     0.24800
C1286       C  0.97507263  0.81653258  0.61404811    -0.19400
C1287       C  0.99597051  0.80797983  0.61837230    -0.07900
C1288       C  0.01422530  0.82205798  0.62062151    -0.03900
C1289       C  0.01120375  0.84476605  0.61774961    -0.09200
C1290       C  0.99034979  0.85325058  0.61336677    -0.16900
H1291       H  0.88786198  0.90741251  0.64012053     0.11300
H1292       H  0.92378372  0.89082520  0.63329858     0.10500
H1293       H  0.89409339  0.84773796  0.59020677     0.10500
H1294       H  0.85789951  0.86435561  0.59684840     0.11000
H1295       H  0.96111835  0.80549754  0.61297751     0.11100
H1296       H  0.99769255  0.79043644  0.62054596     0.11000
H1297       H  0.02487124  0.85606736  0.61933336     0.11200
H1298       H  0.98832360  0.87084523  0.61173647     0.10000
C1299       C  0.11028360  0.86825108  0.62226150    -0.03800
C1300       C  0.12659833  0.87139148  0.60770330    -0.09600
C1301       C  0.13587604  0.89222242  0.60469417    -0.17200
C1302       C  0.12886066  0.91017731  0.61608562     0.24900
C1303       C  0.11222980  0.90728776  0.63021144    -0.18900
C1304       C  0.10302596  0.88651586  0.63330304    -0.07800
C1305       C  0.13926445  0.93138124  0.61404832    -0.14200
C1306       C  0.14779868  0.94931458  0.61384427    -0.14000
C1307       C  0.15765367  0.97083123  0.61538719     0.24800
C1308       C  0.14426575  0.98939598  0.61757291    -0.19400
C1309       C  0.15370526  0.01002448  0.62100621    -0.07900
C1310       C  0.17673435  0.01239415  0.62235317    -0.03900
C1311       C  0.19009159  0.99376569  0.61945734    -0.09200
C1312       C  0.18059578  0.97312537  0.61605118    -0.16900
H1313       H  0.13268804  0.85763948  0.59909949     0.11300
H1314       H  0.14880536  0.89422513  0.59377186     0.10500
H1315       H  0.10668178  0.92102270  0.63914946     0.10500
H1316       H  0.09054100  0.88467428  0.64465245     0.11000
H1317       H  0.12649473  0.98783960  0.61715784     0.11100
H1318       H  0.14292876  0.02400144  0.62316854     0.11000
H1319       H  0.20784609  0.99499334  0.62048081     0.11200
H1320       H  0.19113689  0.95886951  0.61446652     0.10000
C1321       C  0.08847570  0.78410449  0.56965770    -0.03800
C1322       C  0.06904380  0.77946057  0.55906531    -0.09600
C1323       C  0.06925469  0.77834988  0.53835157    -0.17200
C1324       C  0.08883441  0.78191304  0.52788899     0.24900
C1325       C  0.10822857  0.78671125  0.53826035    -0.18900
C1326       C  0.10807777  0.78778722  0.55900368    -0.07800
C1327       C  0.08892466  0.78067689  0.50653225    -0.14200
C1328       C  0.08847971  0.77976716  0.48864950    -0.14000
C1329       C  0.08738387  0.77914876  0.46729328     0.24800
C1330       C  0.10664047  0.78068093  0.45595620    -0.19400
C1331       C  0.10546556  0.78094390  0.43522284    -0.07900
C1332       C  0.08496732  0.77967599  0.42553144    -0.03900
C1333       C  0.06573127  0.77779380  0.43707720    -0.09200
C1334       C  0.06695514  0.77754896  0.45779130    -0.16900
H1335       H  0.05366615  0.77659410  0.56677696     0.11300
H1336       H  0.05412882  0.77468092  0.53049303     0.10500
H1337       H  0.12347269  0.78958201  0.53032162     0.10500
H1338       H  0.12329012  0.79151611  0.56668222     0.11000
H1339       H  0.12255155  0.78191385  0.46314115     0.11100
H1340       H  0.12058365  0.78236698  0.42680201     0.11000
H1341       H  0.04968938  0.77677351  0.43012231     0.11200
H1342       H  0.05193364  0.77635005  0.46639929     0.10000
C1343       C  0.96768671  0.76683433  0.80943889    -0.03800
C1344       C  0.98112065  0.78152448  0.79876118    -0.09600
C1345       C  0.99194453  0.77484780  0.78155814    -0.17200
C1346       C  0.98966255  0.75335444  0.77454256     0.24900
C1347       C  0.97651285  0.73839704  0.78507976    -0.18900
C1348       C  0.96560715  0.74508718  0.80250196    -0.07800
C1349       C  0.00045478  0.74762670  0.75613525    -0.14200
C1350       C  0.01008432  0.74790138  0.74042956    -0.14000
C1351       C  0.02113190  0.75444362  0.72238742     0.24800
C1352       C  0.03128522  0.73929218  0.70959046    -0.19400
C1353       C  0.04184861  0.74664798  0.69221988    -0.07900
C1354       C  0.04228751  0.76920646  0.68754651    -0.03900
C1355       C  0.03216512  0.78412519  0.70066730    -0.09200
C1356       C  0.02174424  0.77681458  0.71782547    -0.16900
H1357       H  0.98319566  0.79837287  0.80360157     0.11300
H1358       H  0.00197105  0.78661944  0.77356009     0.10500
H1359       H  0.97451807  0.72171714  0.77975778     0.10500
H1360       H  0.95534193  0.73342025  0.81033740     0.11000
H1361       H  0.03102003  0.72190752  0.71299799     0.11100
H1362       H  0.04954774  0.73477142  0.68246752     0.11000
H1363       H  0.03222636  0.80161154  0.69770600     0.11200
H1364       H  0.01408738  0.78872900  0.72760120     0.10000
C1365       C  0.19219034  0.86804585  0.80501529    -0.03800
C1366       C  0.18740917  0.84549809  0.80658596    -0.09600
C1367       C  0.18419356  0.83283384  0.78951345    -0.17200
C1368       C  0.18599141  0.84253278  0.77077736     0.24900
C1369       C  0.19197010  0.86463512  0.76910528    -0.18900
C1370       C  0.19508522  0.87732720  0.78609990    -0.07800
C1371       C  0.17872278  0.83095602  0.75343615    -0.14200
C1372       C  0.16978845  0.82383928  0.73886369    -0.14000
C1373       C  0.15648844  0.81850153  0.72194975     0.24800
C1374       C  0.16566546  0.81839983  0.70293148    -0.19400
C1375       C  0.15210896  0.81580982  0.68634799    -0.07900
C1376       C  0.12918823  0.81343292  0.68863709    -0.03900
C1377       C  0.12021828  0.81299175  0.70786130    -0.09200
C1378       C  0.13380264  0.81556147  0.72439243    -0.16900
H1379       H  0.18518231  0.83789020  0.82095669     0.11300
H1380       H  0.17937359  0.81576600  0.79093962     0.10500
H1381       H  0.19324552  0.87232306  0.75466161     0.10500
H1382       H  0.19900743  0.89458777  0.78440770     0.11000
H1383       H  0.18318950  0.82088272  0.70089399     0.11100
H1384       H  0.15951845  0.81612379  0.67174277     0.11000
H1385       H  0.10266220  0.81110271  0.71013017     0.11200
H1386       H  0.12652889  0.81583802  0.73906755     0.10000
C1387       C  0.80783655  0.12482053  0.19001141    -0.03800
C1388       C  0.80476976  0.11568258  0.20895431    -0.09600
C1389       C  0.80612313  0.12885412  0.22586485    -0.17200
C1390       C  0.81050865  0.15133948  0.22414870     0.24900
C1391       C  0.81299134  0.16075214  0.20534495    -0.18900
C1392       C  0.81154514  0.14759069  0.18834227    -0.07800
C1393       C  0.81499539  0.16382965  0.24182268    -0.14200
C1394       C  0.82167797  0.17093973  0.25739147    -0.14000
C1395       C  0.83337421  0.17470471  0.27562994     0.24800
C1396       C  0.83032461  0.19376100  0.28702894    -0.19400
C1397       C  0.84317629  0.19727726  0.30407266    -0.07900
C1398       C  0.85924717  0.18181207  0.30964767    -0.03900
C1399       C  0.86157451  0.16248608  0.29835562    -0.09200
C1400       C  0.84877297  0.15900074  0.28155195    -0.16900
H1401       H  0.80175382  0.09825770  0.21075753     0.11300
H1402       H  0.80442515  0.12134739  0.24035084     0.10500
H1403       H  0.81666581  0.17809243  0.20384855     0.10500
H1404       H  0.81392192  0.15512236  0.17395843     0.11000
H1405       H  0.81837309  0.20600629  0.28257579     0.11100
H1406       H  0.84099977  0.21226351  0.31251927     0.11000
H1407       H  0.87358441  0.15009058  0.30232323     0.11200
H1408       H  0.85120598  0.14415575  0.27292142     0.10000
C1409       C  0.95118465  0.22429331  0.30342987    -0.03800
C1410       C  0.96879008  0.23926963  0.30504559    -0.09600
C1411       C  0.98096447  0.24532151  0.28823535    -0.17200
C1412       C  0.97560750  0.23660551  0.26960855     0.24900
C1413       C  0.95764981  0.22232044  0.26780561    -0.18900
C1414       C  0.94551421  0.21623767  0.28453258    -0.07800
C1415       C  0.98949746  0.24046879  0.25258152    -0.14200
C1416       C  0.00088734  0.24014660  0.23788482    -0.14000
C1417       C  0.01372220  0.23488688  0.22049568     0.24800
C1418       C  0.01905161  0.21289505  0.21705959    -0.19400
C1419       C  0.03031320  0.20682465  0.19992562    -0.07900
C1420       C  0.03654948  0.22263885  0.18575499    -0.03900
C1421       C  0.03166002  0.24487684  0.18944818    -0.09200
C1422       C  0.02018373  0.25096076  0.20674084    -0.16900
H1423       H  0.97361997  0.24573172  0.31936751     0.11300
H1424       H  0.99492660  0.25625955  0.28986607     0.10500
H1425       H  0.95342185  0.21532495  0.25351855     0.10500
H1426       H  0.93208584  0.20469355  0.28272004     0.11000
H1427       H  0.01420038  0.20030160  0.22754533     0.11100
H1428       H  0.03398746  0.18957652  0.19773054     0.11000
H1429       H  0.03627666  0.25740669  0.17884518     0.11200
H1430       H  0.01611922  0.26806936  0.20923801     0.10000
C1431       C  0.12617520  0.10963905  0.37627852    -0.03800
C1432       C  0.12283377  0.12307254  0.39306248    -0.09600
C1433       C  0.10228872  0.13315061  0.39643102    -0.17200
C1434       C  0.08483895  0.12995688  0.38306482     0.24900
C1435       C  0.08802147  0.11638880  0.36655160    -0.18900
C1436       C  0.10838129  0.10632635  0.36320078    -0.07800
C1437       C  0.06374702  0.14083043  0.38556873    -0.14200
C1438       C  0.04553588  0.14899370  0.38497573    -0.14000
C1439       C  0.02366265  0.15755080  0.38105311     0.24800
C1440       C  0.01262408  0.15076608  0.36389668    -0.19400
C1441       C  0.99204531  0.15955009  0.35907528    -0.07900
C1442       C  0.98197371  0.17543303  0.37130476    -0.03900
C1443       C  0.99289445  0.18186074  0.38881348    -0.09200
C1444       C  0.01362200  0.17298787  0.39363627    -0.16900
H1445       H  0.13618213  0.12612411  0.40334867     0.11300
H1446       H  0.10013253  0.14364988  0.40926600     0.10500
H1447       H  0.07477466  0.11379073  0.35603750     0.10500
H1448       H  0.11028192  0.09627344  0.35005143     0.11000
H1449       H  0.02009784  0.13884300  0.35402369     0.11100
H1450       H  0.98416125  0.15405890  0.34554504     0.11000
H1451       H  0.98557861  0.19393185  0.39861146     0.11200
H1452       H  0.02191791  0.17838808  0.40699871     0.10000
C1453       C  0.82446375  0.98215227  0.37222345    -0.03800
C1454       C  0.84744518  0.98372239  0.37463677    -0.09600
C1455       C  0.85764067  0.00421510  0.37636532    -0.17200
C1456       C  0.84505975  0.02343459  0.37572846     0.24900
C1457       C  0.82210661  0.02205965  0.37398372    -0.18900
C1458       C  0.81183789  0.00153658  0.37229804    -0.07800
C1459       C  0.85581740  0.04452208  0.37602312    -0.14200
C1460       C  0.86458248  0.06230394  0.37563999    -0.14000
C1461       C  0.87378408  0.08408436  0.37469039     0.24800
C1462       C  0.86159202  0.10183072  0.38194745    -0.19400
C1463       C  0.86945881  0.12323522  0.37974543    -0.07900
C1464       C  0.88970472  0.12723665  0.37025569    -0.03900
C1465       C  0.90228951  0.10926468  0.36362042    -0.09200
C1466       C  0.89429892  0.08778702  0.36575657    -0.16900
H1467       H  0.85764738  0.96912766  0.37462481     0.11300
H1468       H  0.87540057  0.00507834  0.37772479     0.10500
H1469       H  0.81220362  0.03685546  0.37345386     0.10500
H1470       H  0.79415185  0.00089486  0.37031384     0.11000
H1471       H  0.84571022  0.09916944  0.38887420     0.11100
H1472       H  0.85938550  0.13672041  0.38500974     0.11000
H1473       H  0.91781975  0.11185398  0.35607605     0.11200
H1474       H  0.90384724  0.07414964  0.36002414     0.10000
C1475       C  0.13447686  0.10729328  0.62328639    -0.03800
C1476       C  0.13144468  0.12234799  0.60769445    -0.09600
C1477       C  0.11041920  0.13052563  0.60335187    -0.17200
C1478       C  0.09215595  0.12363224  0.61441528     0.24900
C1479       C  0.09496188  0.10822064  0.62959517    -0.18900
C1480       C  0.11593621  0.10012032  0.63402119    -0.07800
C1481       C  0.07070623  0.13310799  0.61101988    -0.14200
C1482       C  0.05259610  0.14121333  0.60986366    -0.14000
C1483       C  0.03096373  0.15097525  0.61070424     0.24800
C1484       C  0.01230513  0.13761302  0.61255412    -0.19400
C1485       C  0.99161399  0.14702291  0.61596502    -0.07900
C1486       C  0.98930789  0.16997734  0.61762527    -0.03900
C1487       C  0.00799699  0.18331087  0.61481421    -0.09200
C1488       C  0.02867702  0.17385558  0.61144516    -0.16900
H1489       H  0.14538382  0.12825986  0.59921865     0.11300
H1490       H  0.10847856  0.14251991  0.59162305     0.10500
H1491       H  0.08098106  0.10278592  0.63829400     0.10500
H1492       H  0.11767883  0.08851185  0.64608025     0.11000
H1493       H  0.01385831  0.11988418  0.61206011     0.11100
H1494       H  0.97757275  0.13628383  0.61800056     0.11000
H1495       H  0.00681846  0.20101753  0.61601343     0.11200
H1496       H  0.04299631  0.18437733  0.61010823     0.10000
C1497       C  0.82656050  0.98375168  0.61959825    -0.03800
C1498       C  0.84950613  0.98718574  0.61930300    -0.09600
C1499       C  0.85823701  0.00807755  0.61553732    -0.17200
C1500       C  0.84425718  0.02592566  0.61189592     0.24900
C1501       C  0.82142658  0.02250109  0.61134296    -0.18900
C1502       C  0.81263260  0.00158438  0.61513489    -0.07800
C1503       C  0.85333783  0.04789570  0.61033791    -0.14200
C1504       C  0.86155509  0.06604389  0.61087272    -0.14000
C1505       C  0.87198392  0.08724308  0.61379510     0.24800
C1506       C  0.86866707  0.10462750  0.60046623    -0.19400
C1507       C  0.87818309  0.12532263  0.60408004    -0.07900
C1508       C  0.89118015  0.12890479  0.62108889    -0.03900
C1509       C  0.89467887  0.11118787  0.63415321    -0.09200
C1510       C  0.88516306  0.09063125  0.63054428    -0.16900
H1511       H  0.86074585  0.97388138  0.62263887     0.11300
H1512       H  0.87591423  0.01043660  0.61606841     0.10500
H1513       H  0.81037693  0.03613190  0.60858474     0.10500
H1514       H  0.79491670  0.99954740  0.61519527     0.11000
H1515       H  0.85849723  0.10228715  0.58743818     0.11100
H1516       H  0.87508707  0.13857975  0.59375487     0.11000
H1517       H  0.90448300  0.11328392  0.64743408     0.11200
H1518       H  0.88787535  0.07740879  0.64101252     0.10000
C1519       C  0.91510656  0.21323638  0.56825580    -0.03800
C1520       C  0.93450381  0.21328821  0.55679713    -0.09600
C1521       C  0.93341777  0.21412344  0.53608667    -0.17200
C1522       C  0.91297163  0.21500154  0.52653907     0.24900
C1523       C  0.89361790  0.21538263  0.53781265    -0.18900
C1524       C  0.89465018  0.21449364  0.55852076    -0.07800
C1525       C  0.91179218  0.21485034  0.50519248    -0.14200
C1526       C  0.91062785  0.21417730  0.48733435    -0.14000
C1527       C  0.90921237  0.21305105  0.46602032     0.24800
C1528       C  0.89921965  0.19496405  0.45683517    -0.19400
C1529       C  0.89801188  0.19377550  0.43613018    -0.07900
C1530       C  0.90690646  0.21064869  0.42433044    -0.03900
C1531       C  0.91683759  0.22879658  0.43372033    -0.09200
C1532       C  0.91793913  0.22998468  0.45440816    -0.16900
H1533       H  0.95052004  0.21237545  0.56381051     0.11300
H1534       H  0.94851401  0.21382778  0.52752105     0.10500
H1535       H  0.87770009  0.21609828  0.53058497     0.10500
H1536       H  0.87942736  0.21461520  0.56688732     0.11000
H1537       H  0.89241375  0.18174728  0.46567536     0.11100
H1538       H  0.89030606  0.17957301  0.42936831     0.11000
H1539       H  0.92375990  0.24210562  0.42508369     0.11200
H1540       H  0.92567636  0.24407970  0.46134115     0.10000
C1541       C  0.04617106  0.22474900  0.80516552    -0.03800
C1542       C  0.05192924  0.21647397  0.78635155    -0.09600
C1543       C  0.04026419  0.22274547  0.76943388    -0.17200
C1544       C  0.02261828  0.23742913  0.77088426     0.24900
C1545       C  0.01708896  0.24632261  0.78943083    -0.18900
C1546       C  0.02884179  0.24008018  0.80647826    -0.07800
C1547       C  0.00951987  0.24174414  0.75340616    -0.14200
C1548       C  0.99959347  0.24171731  0.73784986    -0.14000
C1549       C  0.98932137  0.23705192  0.71896568     0.24800
C1550       C  0.97224288  0.25010947  0.71135325    -0.19400
C1551       C  0.96153255  0.24400333  0.69368636    -0.07900
C1552       C  0.96763483  0.22462974  0.68368534    -0.03900
C1553       C  0.98518074  0.21206095  0.69119736    -0.09200
C1554       C  0.99594203  0.21826944  0.70859631    -0.16900
H1555       H  0.06517900  0.20469829  0.78471457     0.11300
H1556       H  0.04467706  0.21565243  0.75522840     0.10500
H1557       H  0.00338899  0.25761984  0.79079736     0.10500
H1558       H  0.02394684  0.24671433  0.82071766     0.11000
H1559       H  0.96691123  0.26467400  0.71925166     0.11100
H1560       H  0.94800352  0.25391212  0.68827067     0.11000
H1561       H  0.99038970  0.19715553  0.68375653     0.11200
H1562       H  0.00912835  0.20804447  0.71425602     0.10000
C1563       C  0.82138208  0.12404002  0.80707807    -0.03800
C1564       C  0.81725024  0.11543405  0.78807297    -0.09600
C1565       C  0.82074733  0.12827284  0.77122469    -0.17200
C1566       C  0.82843962  0.14983458  0.77312902     0.24900
C1567       C  0.83209308  0.15874297  0.79198684    -0.18900
C1568       C  0.82846228  0.14596298  0.80890044    -0.07800
C1569       C  0.83460961  0.16188528  0.75569178    -0.14200
C1570       C  0.84200371  0.16996897  0.74082896    -0.14000
C1571       C  0.85349297  0.17685231  0.72329188     0.24800
C1572       C  0.84312473  0.17614502  0.70476753    -0.19400
C1573       C  0.85532936  0.17983279  0.68749324    -0.07900
C1574       C  0.87807995  0.18406107  0.68861411    -0.03900
C1575       C  0.88811450  0.18561420  0.70736354    -0.09200
C1576       C  0.87588685  0.18199939  0.72456408    -0.16900
H1577       H  0.81165605  0.09865696  0.78620547     0.11300
H1578       H  0.81804131  0.12117128  0.75668324     0.10500
H1579       H  0.83828657  0.17534763  0.79359846     0.10500
H1580       H  0.83183106  0.15300757  0.82334007     0.11000
H1581       H  0.82581416  0.17201343  0.70363229     0.11100
H1582       H  0.84713343  0.17860522  0.67327372     0.11000
H1583       H  0.90555793  0.18900814  0.70874208     0.11200
H1584       H  0.88408618  0.18245401  0.73883201     0.10000
C1585       C  0.27075523  0.11910004  0.63862622    -0.03800
C1586       C  0.29069310  0.11137116  0.63052949    -0.09600
C1587       C  0.30979518  0.12443939  0.63114122    -0.17200
C1588       C  0.30926061  0.14535722  0.63992541     0.24900
C1589       C  0.28961813  0.15288648  0.64840179    -0.18900
C1590       C  0.27059023  0.13994075  0.64777821    -0.07800
C1591       C  0.32834924  0.15969360  0.63968094    -0.14200
C1592       C  0.34266645  0.17358813  0.63967650    -0.14000
C1593       C  0.35746892  0.19229968  0.63984537     0.24800
C1594       C  0.35068530  0.21184738  0.64893057    -0.19400
C1595       C  0.36378783  0.23071576  0.64786077    -0.07900
C1596       C  0.38403323  0.23047612  0.63764484    -0.03900
C1597       C  0.39117843  0.21055560  0.62913986    -0.09200
C1598       C  0.37793959  0.19161660  0.63018324    -0.16900
H1599       H  0.29139854  0.09548080  0.62331816     0.11300
H1600       H  0.32484914  0.11838188  0.62447403     0.10500
H1601       H  0.28888998  0.16900067  0.65522789     0.10500
H1602       H  0.25560775  0.14647511  0.65419986     0.11000
H1603       H  0.33494619  0.21267265  0.65647368     0.11100
H1604       H  0.35777720  0.24567110  0.65469335     0.11000
H1605       H  0.40664274  0.20978370  0.62117170     0.11200
H1606       H  0.38343626  0.17662169  0.62306955     0.10000
C1607       C  0.37527035  0.22912321  0.35939263    -0.03800
C1608       C  0.38321899  0.21013310  0.34978864    -0.09600
C1609       C  0.36995711  0.19117550  0.34832449    -0.17200
C1610       C  0.34862132  0.19100450  0.35642635     0.24900
C1611       C  0.34069937  0.20986341  0.36587060    -0.18900
C1612       C  0.35380039  0.22864771  0.36734882    -0.07800
C1613       C  0.33434444  0.17192770  0.35514024    -0.14200
C1614       C  0.32007925  0.15796836  0.35509666    -0.14000
C1615       C  0.30087457  0.14377419  0.35562161     0.24800
C1616       C  0.28110850  0.15108610  0.34723358    -0.19400
C1617       C  0.26193379  0.13844482  0.34879494    -0.07900
C1618       C  0.26207779  0.11812467  0.35879484    -0.03900
C1619       C  0.28210448  0.11061923  0.36687683    -0.09200
C1620       C  0.30134116  0.12339810  0.36535550    -0.16900
H1621       H  0.39961943  0.20992240  0.34348691     0.11300
H1622       H  0.37632517  0.17672148  0.34089896     0.10500
H1623       H  0.32426440  0.21008043  0.37214163     0.10500
H1624       H  0.34699190  0.24288237  0.37479561     0.11000
H1625       H  0.28040055  0.16682413  0.33975983     0.11100
H1626       H  0.24687665  0.14478183  0.34237307     0.11000
H1627       H  0.28278811  0.09514501  0.37476239     0.11200
H1628       H  0.31645364  0.11755951  0.37205780     0.10000
C1629       C  0.41080763  0.28301793  0.42548881    -0.03800
C1630       C  0.42419615  0.26692465  0.43440578    -0.09600
C1631       C  0.42616308  0.26586704  0.45506202    -0.17200
C1632       C  0.41478402  0.28084450  0.46704452     0.24900
C1633       C  0.40148389  0.29690741  0.45830994    -0.18900
C1634       C  0.39950159  0.29801486  0.43769417    -0.07800
C1635       C  0.41649875  0.27973892  0.48830780    -0.14200
C1636       C  0.41717904  0.27942392  0.50617494    -0.14000
C1637       C  0.41732878  0.27967964  0.52751783     0.24800
C1638       C  0.39772757  0.28320258  0.53798214    -0.19400
C1639       C  0.39785791  0.28392269  0.55871446    -0.07900
C1640       C  0.41765649  0.28117994  0.56925308    -0.03900
C1641       C  0.43726446  0.27752278  0.55857988    -0.09200
C1642       C  0.43707592  0.27677135  0.53785997    -0.16900
H1643       H  0.43317544  0.25518239  0.42543823     0.11300
H1644       H  0.43651408  0.25336449  0.46167464     0.10500
H1645       H  0.39260127  0.30857858  0.46744850     0.10500
H1646       H  0.38910484  0.31062323  0.43132797     0.11000
H1647       H  0.38235212  0.28552458  0.53010756     0.11100
H1648       H  0.38251172  0.28683365  0.56646589     0.11000
H1649       H  0.45279373  0.27535287  0.56622479     0.11200
H1650       H  0.45234816  0.27406168  0.52991259     0.10000
C1651       C  0.23429296  0.61772644  0.63674597    -0.03800
C1652       C  0.21500483  0.61213590  0.62629862    -0.09600
C1653       C  0.19664038  0.62619406  0.62656861    -0.17200
C1654       C  0.19729662  0.64590727  0.63737539     0.24900
C1655       C  0.21620475  0.65121250  0.64821491    -0.18900
C1656       C  0.23450656  0.63730411  0.64791266    -0.07800
C1657       C  0.17919748  0.66136063  0.63682158    -0.14200
C1658       C  0.16562869  0.67592959  0.63673140    -0.14000
C1659       C  0.15131876  0.69494235  0.63690080     0.24800
C1660       C  0.15927537  0.71496988  0.64418735    -0.19400
C1661       C  0.14605998  0.73377649  0.64368862    -0.07900
C1662       C  0.12456193  0.73294291  0.63584792    -0.03900
C1663       C  0.11651457  0.71266000  0.62885305    -0.09200
C1664       C  0.12982304  0.69379752  0.62936805    -0.16900
H1665       H  0.21436724  0.59729929  0.61743690     0.11300
H1666       H  0.18213714  0.62190835  0.61804871     0.10500
H1667       H  0.21698803  0.66638622  0.65661367     0.10500
H1668       H  0.24904020  0.64215021  0.65613769     0.11000
H1669       H  0.17585518  0.71613057  0.65004171     0.11100
H1670       H  0.15284651  0.74906797  0.64919900     0.11000
H1671       H  0.10009798  0.71144823  0.62268105     0.11200
H1672       H  0.12345095  0.67841484  0.62365717     0.10000
C1673       C  0.39408036  0.36598474  0.61968066    -0.03800
C1674       C  0.37963831  0.36888726  0.60354611    -0.09600
C1675       C  0.36986237  0.38943390  0.59999251    -0.17200
C1676       C  0.37443986  0.40732194  0.61247134     0.24900
C1677       C  0.38932239  0.40469278  0.62812064    -0.18900
C1678       C  0.39906977  0.38427498  0.63168657    -0.07800
C1679       C  0.36331408  0.42816939  0.61003232    -0.14200
C1680       C  0.35443333  0.44597416  0.60988016    -0.14000
C1681       C  0.34457946  0.46753839  0.61164363     0.24800
C1682       C  0.35803312  0.48619003  0.61268372    -0.19400
C1683       C  0.34882291  0.50689808  0.61628802    -0.07900
C1684       C  0.32593820  0.50933083  0.61895379    -0.03900
C1685       C  0.31244250  0.49060550  0.61724600    -0.09200
C1686       C  0.32171969  0.46986179  0.61367746    -0.16900
H1687       H  0.37539585  0.35516219  0.59405238     0.11300
H1688       H  0.35837646  0.39122554  0.58781213     0.10500
H1689       H  0.39304056  0.41834983  0.63788962     0.10500
H1690       H  0.41008737  0.38270103  0.64423066     0.11000
H1691       H  0.37573735  0.48465843  0.61122254     0.11100
H1692       H  0.35971732  0.52092765  0.61750581     0.11000
H1693       H  0.29480273  0.49185937  0.61931568     0.11200
H1694       H  0.31110866  0.45556617  0.61301320     0.10000
C1695       C  0.22866952  0.61625689  0.35793340    -0.03800
C1696       C  0.22748982  0.63470155  0.34537519    -0.09600
C1697       C  0.20857756  0.64776040  0.34477583    -0.17200
C1698       C  0.19043605  0.64275145  0.35673005     0.24900
C1699       C  0.19115602  0.62409262  0.36894499    -0.18900
C1700       C  0.21012884  0.61084691  0.36948109    -0.07800
C1701       C  0.17177787  0.65757412  0.35696951    -0.14200
C1702       C  0.15778084  0.67174896  0.35669360    -0.14000
C1703       C  0.14300387  0.69041988  0.35615428     0.24800
C1704       C  0.12338391  0.69047392  0.36712120    -0.19400
C1705       C  0.11011362  0.70935308  0.36772097    -0.07900
C1706       C  0.11639119  0.72852207  0.35748080    -0.03900
C1707       C  0.13578228  0.72805289  0.34603304    -0.09200
C1708       C  0.14892395  0.70917101  0.34536933    -0.16900
H1709       H  0.24141483  0.63933514  0.33624875     0.11300
H1710       H  0.20830999  0.66211014  0.33527674     0.10500
H1711       H  0.17727184  0.62005101  0.37834726     0.10500
H1712       H  0.21058577  0.59688707  0.37941510     0.11000
H1713       H  0.11859222  0.67611402  0.37556488     0.11100
H1714       H  0.09533645  0.70917443  0.37671148     0.11000
H1715       H  0.14106253  0.74245388  0.33789396     0.11200
H1716       H  0.16402237  0.70939054  0.33680293     0.10000
C1717       C  0.39187615  0.36785595  0.37483935    -0.03800
C1718       C  0.40577591  0.38579757  0.37073120    -0.09600
C1719       C  0.39816621  0.40742409  0.37318114    -0.17200
C1720       C  0.37665129  0.41138051  0.37988763     0.24900
C1721       C  0.36306802  0.39360898  0.38471276    -0.18900
C1722       C  0.37058301  0.37206767  0.38223216    -0.07800
C1723       C  0.36787882  0.43346091  0.38073546    -0.14200
C1724       C  0.35926157  0.45138892  0.38059452    -0.14000
C1725       C  0.34816289  0.47236536  0.37924479     0.24800
C1726       C  0.32514316  0.47325735  0.37784760    -0.19400
C1727       C  0.31443712  0.49340076  0.37491221    -0.07900
C1728       C  0.32663880  0.51296676  0.37321204    -0.03900
C1729       C  0.34971563  0.51198563  0.37530337    -0.09200
C1730       C  0.36036345  0.49185198  0.37828586    -0.16900
H1731       H  0.42217136  0.38313811  0.36488398     0.11300
H1732       H  0.40884705  0.42102698  0.36933062     0.10500
H1733       H  0.34640083  0.39638721  0.38988487     0.10500
H1734       H  0.35942520  0.35867944  0.38554717     0.11000
H1735       H  0.31548921  0.45830317  0.37853547     0.11100
H1736       H  0.29669676  0.49354314  0.37328369     0.11000
H1737       H  0.35963000  0.52672071  0.37410487     0.11200
H1738       H  0.37816252  0.49143560  0.37934688     0.10000
C1739       C  0.28358006  0.58476427  0.56916009    -0.03800
C1740       C  0.28248262  0.56541435  0.55774431    -0.09600
C1741       C  0.28136170  0.56647960  0.53704876    -0.17200
C1742       C  0.28128046  0.58685479  0.52744101     0.24900
C1743       C  0.28210599  0.60620997  0.53865732    -0.18900
C1744       C  0.28325289  0.60519410  0.55937119    -0.07800
C1745       C  0.28082801  0.58778513  0.50607993    -0.14200
C1746       C  0.28087250  0.58785619  0.48817685    -0.14000
C1747       C  0.28126930  0.58712574  0.46680698     0.24800
C1748       C  0.28148657  0.60659721  0.45577496    -0.19400
C1749       C  0.28203239  0.60580086  0.43503299    -0.07900
C1750       C  0.28235207  0.58547582  0.42502984    -0.03900
C1751       C  0.28214765  0.56599971  0.43627166    -0.09200
C1752       C  0.28161310  0.56684622  0.45699660    -0.16900
H1753       H  0.28270927  0.54942999  0.56478150     0.11300
H1754       H  0.28074367  0.55138617  0.52852682     0.10500
H1755       H  0.28205197  0.62208065  0.53139289     0.10500
H1756       H  0.28403564  0.62039903  0.56769928     0.11000
H1757       H  0.28127525  0.62239441  0.46319917     0.11100
H1758       H  0.28223759  0.62109593  0.42684466     0.11000
H1759       H  0.28246622  0.55009042  0.42906645     0.11200
H1760       H  0.28150775  0.55166421  0.46537516     0.10000
C1761       C  0.62169775  0.76391609  0.63732815    -0.03800
C1762       C  0.64221200  0.76376758  0.64707490    -0.09600
C1763       C  0.65545638  0.78255982  0.64745336    -0.17200
C1764       C  0.64852871  0.80188231  0.63811212     0.24900
C1765       C  0.62788126  0.80243652  0.62880301    -0.18900
C1766       C  0.61450710  0.78359776  0.62846470    -0.07800
C1767       C  0.66324966  0.82057691  0.63748964    -0.14200
C1768       C  0.67747543  0.83451645  0.63733306    -0.14000
C1769       C  0.69649965  0.84884594  0.63765625     0.24800
C1770       C  0.69541827  0.87044467  0.63047029    -0.19400
C1771       C  0.71437876  0.88369515  0.63018341    -0.07900
C1772       C  0.73467551  0.87547830  0.63705839    -0.03900
C1773       C  0.73540392  0.85389041  0.64456542    -0.09200
C1774       C  0.71652920  0.84074556  0.64482569    -0.16900
H1775       H  0.64826813  0.74896522  0.65410988     0.11300
H1776       H  0.67136139  0.78186864  0.65471401     0.10500
H1777       H  0.62230884  0.81726278  0.62148436     0.10500
H1778       H  0.59886158  0.78425406  0.62078614     0.11000
H1779       H  0.68003238  0.87693493  0.62484617     0.11100
H1780       H  0.71325122  0.90017232  0.62422849     0.11000
H1781       H  0.75069504  0.84694399  0.64993914     0.11200
H1782       H  0.71764477  0.82408815  0.65040324     0.10000
C1783       C  0.51344314  0.67208811  0.62115440    -0.03800
C1784       C  0.49533406  0.68576361  0.61696024    -0.09600
C1785       C  0.47456429  0.67667697  0.61303178    -0.17200
C1786       C  0.47163594  0.65383330  0.61317398     0.24900
C1787       C  0.48970044  0.64013013  0.61674718    -0.18900
C1788       C  0.51043160  0.64914669  0.62066469    -0.07800
C1789       C  0.44996349  0.64437292  0.61092831    -0.14200
C1790       C  0.43201621  0.63578639  0.61055663    -0.14000
C1791       C  0.41084301  0.62509779  0.61204494     0.24800
C1792       C  0.40891490  0.60546586  0.62271100    -0.19400
C1793       C  0.38819474  0.59612014  0.62601316    -0.07900
C1794       C  0.36906683  0.60619407  0.61855855    -0.03900
C1795       C  0.37119335  0.62540187  0.60711841    -0.09200
C1796       C  0.39195914  0.63486747  0.60399653    -0.16900
H1797       H  0.49706494  0.70347126  0.61725590     0.11300
H1798       H  0.46069947  0.68747477  0.61035815     0.10500
H1799       H  0.48765832  0.62244279  0.61697494     0.10500
H1800       H  0.52397350  0.63812013  0.62383324     0.11000
H1801       H  0.42337580  0.59773019  0.62901474     0.11100
H1802       H  0.38707272  0.58130587  0.63484473     0.11000
H1803       H  0.35673970  0.63364033  0.60136594     0.11200
H1804       H  0.39320896  0.65010771  0.59578574     0.10000
C1805       C  0.61830883  0.76261177  0.36038417    -0.03800
C1806       C  0.63936402  0.76242162  0.35162300    -0.09600
C1807       C  0.65235698  0.78139622  0.35134508    -0.17200
C1808       C  0.64462183  0.80094959  0.35979120     0.24900
C1809       C  0.62353943  0.80146914  0.36826662    -0.18900
C1810       C  0.61044426  0.78244411  0.36853833    -0.07800
C1811       C  0.65881895  0.82005392  0.36015708    -0.14200
C1812       C  0.67260769  0.83442361  0.35999749    -0.14000
C1813       C  0.69129844  0.84915024  0.35913255     0.24800
C1814       C  0.69082968  0.86993512  0.36816977    -0.19400
C1815       C  0.70971485  0.88331601  0.36811722    -0.07900
C1816       C  0.72930776  0.87599046  0.35909080    -0.03900
C1817       C  0.72933712  0.85531517  0.34966700    -0.09200
C1818       C  0.71055170  0.84207509  0.34971148    -0.16900
H1819       H  0.64597718  0.74749830  0.34520009     0.11300
H1820       H  0.66862076  0.78072323  0.34475249     0.10500
H1821       H  0.61734072  0.81646829  0.37488880     0.10500
H1822       H  0.59436074  0.78315783  0.37544656     0.11000
H1823       H  0.67604521  0.87561589  0.37555825     0.11100
H1824       H  0.70917066  0.89906434  0.37559100     0.11000
H1825       H  0.74407080  0.84910036  0.34255602     0.11200
H1826       H  0.71119086  0.82606507  0.34267856     0.10000
C1827       C  0.36455761  0.60945136  0.37352000    -0.03800
C1828       C  0.36710901  0.62517378  0.38866231    -0.09600
C1829       C  0.38788772  0.63410887  0.39272998    -0.17200
C1830       C  0.40629638  0.62728198  0.38182652     0.24900
C1831       C  0.40395051  0.61125830  0.36710272    -0.18900
C1832       C  0.38325714  0.60241544  0.36295395    -0.07800
C1833       C  0.42746398  0.63736586  0.38482414    -0.14200
C1834       C  0.44552741  0.64556349  0.38527435    -0.14000
C1835       C  0.46714557  0.65500833  0.38340282     0.24800
C1836       C  0.48573186  0.64141227  0.38337838    -0.19400
C1837       C  0.50650702  0.65018913  0.37923133    -0.07900
C1838       C  0.50893038  0.67271731  0.37509567    -0.03900
C1839       C  0.49026826  0.68638733  0.37586323    -0.09200
C1840       C  0.46949387  0.67754636  0.37989252    -0.16900
H1841       H  0.35298901  0.63101442  0.39694255     0.11300
H1842       H  0.38951895  0.64660581  0.40408987     0.10500
H1843       H  0.41807050  0.60590783  0.35853389     0.10500
H1844       H  0.38184957  0.59032386  0.35122385     0.11000
H1845       H  0.48407842  0.62392007  0.38596633     0.11100
H1846       H  0.52057848  0.63926611  0.37878914     0.11000
H1847       H  0.49158225  0.70376131  0.37261126     0.11200
H1848       H  0.45518763  0.68818246  0.37970346     0.10000
C1849       C  0.58424160  0.70946281  0.42595598    -0.03800
C1850       C  0.56554376  0.71512255  0.43720365    -0.09600
C1851       C  0.56665470  0.71606906  0.45792586    -0.17200
C1852       C  0.58640353  0.71128204  0.46773255     0.24900
C1853       C  0.60499864  0.70531402  0.45669443    -0.18900
C1854       C  0.60395615  0.70443436  0.43596731    -0.07800
C1855       C  0.58757770  0.71259263  0.48908535    -0.14200
C1856       C  0.58820258  0.71361020  0.50697384    -0.14000
C1857       C  0.58826455  0.71431676  0.52837374     0.24800
C1858       C  0.60760117  0.70990985  0.53896425    -0.19400
C1859       C  0.60732114  0.70950042  0.55973125    -0.07900
C1860       C  0.58763388  0.71340947  0.57020760    -0.03900
C1861       C  0.56840086  0.71827437  0.55941994    -0.09200
C1862       C  0.56874351  0.71873542  0.53867674    -0.16900
H1863       H  0.55010488  0.71903527  0.42999107     0.11300
H1864       H  0.55212426  0.72064107  0.46629498     0.10500
H1865       H  0.62035041  0.70146019  0.46409984     0.10500
H1866       H  0.61860313  0.69985231  0.42778647     0.11000
H1867       H  0.62282649  0.70648429  0.53117277     0.11100
H1868       H  0.62242595  0.70574413  0.56755872     0.11000
H1869       H  0.55300534  0.72148459  0.56699434     0.11200
H1870       H  0.55368135  0.72222053  0.53066395     0.10000
C1871       C  0.77235299  0.37799060  0.63592034    -0.03800
C1872       C  0.77276511  0.35757916  0.64577103    -0.09600
C1873       C  0.79177803  0.34460634  0.64586108    -0.17200
C1874       C  0.81087224  0.35165654  0.63614180     0.24900
C1875       C  0.81092741  0.37224903  0.62675113    -0.18900
C1876       C  0.79181860  0.38536368  0.62668033    -0.07800
C1877       C  0.82979344  0.33708795  0.63531130    -0.14200
C1878       C  0.84384216  0.32290588  0.63519304    -0.14000
C1879       C  0.85835302  0.30394920  0.63574713     0.24800
C1880       C  0.87795851  0.30330837  0.62471881    -0.19400
C1881       C  0.89098183  0.28418709  0.62446829    -0.07900
C1882       C  0.88446615  0.26536557  0.63512224    -0.03900
C1883       C  0.86505735  0.26642874  0.64652379    -0.09200
C1884       C  0.85219167  0.28550524  0.64683717    -0.16900
H1885       H  0.75818288  0.35133964  0.65310437     0.11300
H1886       H  0.79142026  0.32878268  0.65321011     0.10500
H1887       H  0.82555910  0.37797004  0.61915252     0.10500
H1888       H  0.79208373  0.40092425  0.61891418     0.11000
H1889       H  0.88295755  0.31740363  0.61601624     0.11100
H1890       H  0.90574070  0.28389829  0.61545572     0.11000
H1891       H  0.85954604  0.25232159  0.65495280     0.11200
H1892       H  0.83712096  0.28569138  0.65544472     0.10000
C1893       C  0.67602300  0.48344250  0.62143331    -0.03800
C1894       C  0.65294621  0.48600247  0.62177156    -0.09600
C1895       C  0.64325675  0.50654094  0.61821745    -0.17200
C1896       C  0.65637544  0.52494605  0.61418144     0.24900
C1897       C  0.67932152  0.52244958  0.61325681    -0.18900
C1898       C  0.68907046  0.50189335  0.61683241    -0.07800
C1899       C  0.64633865  0.54651436  0.61229428    -0.14200
C1900       C  0.63762886  0.56446718  0.61233178    -0.14000
C1901       C  0.62704300  0.58572399  0.61462974     0.24800
C1902       C  0.63229006  0.60343439  0.60216683    -0.19400
C1903       C  0.62330541  0.62437975  0.60572154    -0.07900
C1904       C  0.60900464  0.62794352  0.62187046    -0.03900
C1905       C  0.60326264  0.60985242  0.63382923    -0.09200
C1906       C  0.61218808  0.58901094  0.63023537    -0.16900
H1907       H  0.64234415  0.47223616  0.62528820     0.11300
H1908       H  0.62551247  0.50815607  0.61907577     0.10500
H1909       H  0.68973563  0.53650707  0.61022857     0.10500
H1910       H  0.70684873  0.50057850  0.61647194     0.11000
H1911       H  0.64374081  0.60119929  0.59001218     0.11100
H1912       H  0.62809768  0.63790079  0.59622895     0.11000
H1913       H  0.59227420  0.61189575  0.64634609     0.11200
H1914       H  0.60791050  0.57553757  0.63999706     0.10000
C1915       C  0.63612164  0.38666682  0.61961305    -0.03800
C1916       C  0.63317126  0.37282719  0.60306602    -0.09600
C1917       C  0.61237148  0.36386418  0.59885231    -0.17200
C1918       C  0.59430994  0.36871868  0.61106470     0.24900
C1919       C  0.59700697  0.38309728  0.62707092    -0.18900
C1920       C  0.61767184  0.39200008  0.63131144    -0.07800
C1921       C  0.57322245  0.35818260  0.60819299    -0.14200
C1922       C  0.55516738  0.34979356  0.60820081    -0.14000
C1923       C  0.53339900  0.34056644  0.61062497     0.24800
C1924       C  0.51548819  0.35445386  0.61433318    -0.19400
C1925       C  0.49472244  0.34564742  0.61855733    -0.07900
C1926       C  0.49151728  0.32273517  0.61923242    -0.03900
C1927       C  0.50949332  0.30888073  0.61500031    -0.09200
C1928       C  0.53028327  0.31774952  0.61075861    -0.16900
H1929       H  0.64702388  0.36840664  0.59376713     0.11300
H1930       H  0.61051130  0.35275126  0.58640437     0.10500
H1931       H  0.58320104  0.38701011  0.63662970     0.10500
H1932       H  0.61928018  0.40264928  0.64410743     0.11000
H1933       H  0.51768302  0.37212478  0.61443053     0.11100
H1934       H  0.48130802  0.35681209  0.62179658     0.11000
H1935       H  0.50763398  0.29119164  0.61545410     0.11200
H1936       H  0.54402922  0.30680129  0.60805745     0.10000
C1937       C  0.76550290  0.37891317  0.35713498    -0.03800
C1938       C  0.78443700  0.38576718  0.36751693    -0.09600
C1939       C  0.80403727  0.37350365  0.36647201    -0.17200
C1940       C  0.80506216  0.35435456  0.35487880     0.24900
C1941       C  0.78649620  0.34789870  0.34402026    -0.18900
C1942       C  0.76692879  0.35999752  0.34514266    -0.07800
C1943       C  0.82432281  0.34023364  0.35515854    -0.14200
C1944       C  0.83845111  0.32616262  0.35581784    -0.14000
C1945       C  0.85227130  0.30681278  0.35760421     0.24800
C1946       C  0.84450894  0.28902693  0.36868719    -0.19400
C1947       C  0.85666124  0.26959438  0.36986376    -0.07900
C1948       C  0.87700160  0.26740803  0.35998318    -0.03900
C1949       C  0.88502696  0.28549744  0.34912737    -0.09200
C1950       C  0.87268825  0.30506784  0.34789957    -0.16900
H1951       H  0.78388503  0.40016773  0.37695123     0.11300
H1952       H  0.81818857  0.37865975  0.37507937     0.10500
H1953       H  0.78694563  0.33311359  0.33505889     0.10500
H1954       H  0.75274399  0.35426206  0.33688971     0.11000
H1955       H  0.82879585  0.29005214  0.37625836     0.11100
H1956       H  0.84994517  0.25616027  0.37847340     0.11000
H1957       H  0.90061083  0.28440471  0.34138210     0.11200
H1958       H  0.87892752  0.31867363  0.33921346     0.10000
C1959       C  0.66816955  0.48183447  0.37528342    -0.03800
C1960       C  0.68096595  0.50104987  0.37681940    -0.09600
C1961       C  0.67090826  0.52151339  0.37975081    -0.17200
C1962       C  0.64795499  0.52307607  0.38132893     0.24900
C1963       C  0.63517448  0.50393387  0.38069172    -0.18900
C1964       C  0.64518208  0.48346543  0.37771066    -0.07800
C1965       C  0.63746756  0.54437499  0.38214201    -0.14200
C1966       C  0.62890825  0.56229606  0.38138295    -0.14000
C1967       C  0.61918717  0.58379644  0.37891076     0.24800
C1968       C  0.60398221  0.58743604  0.36365812    -0.19400
C1969       C  0.59583010  0.60858323  0.36013466    -0.07900
C1970       C  0.60275719  0.62648219  0.37183871    -0.03900
C1971       C  0.61751252  0.62256082  0.38753944    -0.09200
C1972       C  0.62571500  0.60137542  0.39099428    -0.16900
H1973       H  0.69866879  0.50040298  0.37496676     0.11300
H1974       H  0.68099588  0.53619411  0.38017343     0.10500
H1975       H  0.61740540  0.50489040  0.38187752     0.10500
H1976       H  0.63483938  0.46901076  0.37665656     0.11000
H1977       H  0.59879750  0.57400665  0.35418115     0.11100
H1978       H  0.58446416  0.61099067  0.34795545     0.11000
H1979       H  0.62322800  0.63596375  0.39677812     0.11200
H1980       H  0.63751310  0.59880684  0.40281536     0.10000
C1981       C  0.48557174  0.31527232  0.37200774    -0.03800
C1982       C  0.49370592  0.33442748  0.36285758    -0.09600
C1983       C  0.51500209  0.34192195  0.36665469    -0.17200
C1984       C  0.52876133  0.33053408  0.37967880     0.24900
C1985       C  0.52086123  0.31154271  0.38914543    -0.18900
C1986       C  0.49933595  0.30397187  0.38537679    -0.07800
C1987       C  0.55096245  0.33858359  0.38265430    -0.14200
C1988       C  0.56881898  0.34746015  0.38279967    -0.14000
C1989       C  0.58915558  0.35963764  0.38047010     0.24800
C1990       C  0.60775760  0.35478456  0.39196631    -0.19400
C1991       C  0.62767579  0.36592809  0.38865165    -0.07900
C1992       C  0.62929708  0.38201129  0.37369868    -0.03900
C1993       C  0.61032494  0.38718890  0.36265322    -0.09200
C1994       C  0.59047594  0.37611125  0.36602808    -0.16900
H1995       H  0.48364559  0.34364178  0.35254161     0.11300
H1996       H  0.52082889  0.35660161  0.35922832     0.10500
H1997       H  0.53134692  0.30251724  0.39925607     0.10500
H1998       H  0.49362739  0.28914539  0.39260234     0.11000
H1999       H  0.60700160  0.34210849  0.40321003     0.11100
H2000       H  0.64196540  0.36146574  0.39736515     0.11000
H2001       H  0.61093310  0.39945433  0.35104315     0.11200
H2002       H  0.57623002  0.38010063  0.35705057     0.10000
C2003       C  0.71270461  0.40867382  0.42522753    -0.03800
C2004       C  0.70974054  0.38884635  0.43561749    -0.09600
C2005       C  0.71103053  0.38842577  0.45635571    -0.17200
C2006       C  0.71537726  0.40776465  0.46694628     0.24900
C2007       C  0.71840223  0.42751855  0.45672256    -0.18900
C2008       C  0.71704226  0.42800328  0.43604276    -0.07800
C2009       C  0.71660797  0.40749933  0.48829145    -0.14200
C2010       C  0.71753259  0.40786993  0.50616915    -0.14000
C2011       C  0.71834217  0.40863386  0.52752347     0.24800
C2012       C  0.72074677  0.42878004  0.53734622    -0.19400
C2013       C  0.72100040  0.42959031  0.55809191    -0.07900
C2014       C  0.71888543  0.41021059  0.56930479    -0.03900
C2015       C  0.71669108  0.39001828  0.55926911    -0.09200
C2016       C  0.71639906  0.38926396  0.53854057    -0.16900
H2017       H  0.70628466  0.37371432  0.42774503     0.11300
H2018       H  0.70860687  0.37303887  0.46412178     0.10500
H2019       H  0.72176415  0.44258771  0.46474630     0.10500
H2020       H  0.71943458  0.44353937  0.42852849     0.11000
H2021       H  0.72226148  0.44388859  0.52897106     0.11100
H2022       H  0.72270059  0.44538968  0.56533688     0.11000
H2023       H  0.71495522  0.37479886  0.56742653     0.11200
H2024       H  0.71450408  0.37357998  0.53111175     0.10000
C2025       C  0.12251948  0.26748494  0.86136316    -0.03800
C2026       C  0.11477395  0.28582039  0.85070191    -0.09600
C2027       C  0.12758560  0.30509074  0.84938655    -0.17200
C2028       C  0.14821964  0.30628607  0.85878085     0.24900
C2029       C  0.15578253  0.28821107  0.86958063    -0.18900
C2030       C  0.14314991  0.26908379  0.87086091    -0.07800
C2031       C  0.16231838  0.32546045  0.85707503    -0.14200
C2032       C  0.17639017  0.33959898  0.85640385    -0.14000
C2033       C  0.19539842  0.35406820  0.85601473     0.24800
C2034       C  0.21458976  0.34721995  0.84629988    -0.19400
C2035       C  0.23376476  0.35995346  0.84717201    -0.07900
C2036       C  0.23419419  0.37988969  0.85780774    -0.03900
C2037       C  0.21465658  0.38705054  0.86706346    -0.09200
C2038       C  0.19542815  0.37418221  0.86623153    -0.16900
H2039       H  0.09901878  0.28516421  0.84320817     0.11300
H2040       H  0.12150520  0.31892328  0.84090980     0.10500
H2041       H  0.17166303  0.28879502  0.87689765     0.10500
H2042       H  0.14971516  0.25542315  0.87926628     0.11000
H2043       H  0.21490353  0.33170929  0.83839644     0.11100
H2044       H  0.24842622  0.35391458  0.83982192     0.11000
H2045       H  0.21441294  0.40224427  0.87543351     0.11200
H2046       H  0.18076339  0.37968665  0.87391755     0.10000
C2047       C  0.27516553  0.46248132  0.80981347    -0.03800
C2048       C  0.29028222  0.47468895  0.79842714    -0.09600
C2049       C  0.28360647  0.48558379  0.78127785    -0.17200
C2050       C  0.26169205  0.48459428  0.77501856     0.24900
C2051       C  0.24633095  0.47266778  0.78626547    -0.18900
C2052       C  0.25302088  0.46169190  0.80362320    -0.07800
C2053       C  0.25586881  0.49527980  0.75659370    -0.14200
C2054       C  0.25555311  0.50426363  0.74058920    -0.14000
C2055       C  0.26067688  0.51407834  0.72160682     0.24800
C2056       C  0.24636715  0.52884347  0.71211993    -0.19400
C2057       C  0.25271039  0.53901765  0.69425777    -0.07900
C2058       C  0.27351176  0.53466034  0.68587970    -0.03900
C2059       C  0.28745764  0.51951992  0.69541557    -0.09200
C2060       C  0.28108849  0.50936234  0.71302432    -0.16900
H2061       H  0.30745070  0.47574663  0.80266915     0.11300
H2062       H  0.29569348  0.49463561  0.77272548     0.10500
H2063       H  0.22931451  0.47166636  0.78153943     0.10500
H2064       H  0.24100338  0.45241136  0.81201889     0.11000
H2065       H  0.23054118  0.53273673  0.71864636     0.11100
H2066       H  0.24166219  0.55065908  0.68731090     0.11000
H2067       H  0.30352193  0.51564250  0.68936992     0.11200
H2068       H  0.29234506  0.49804394  0.72017129     0.10000
C2069       C  0.37797990  0.31414762  0.68815264    -0.03800
C2070       C  0.35494107  0.31616289  0.68672494    -0.09600
C2071       C  0.34230759  0.32042268  0.70367482    -0.17200
C2072       C  0.35257640  0.32260079  0.72216484     0.24900
C2073       C  0.37536452  0.31995482  0.72375680    -0.18900
C2074       C  0.38798172  0.31571262  0.70691755    -0.07800
C2075       C  0.34035765  0.32949530  0.73931862    -0.14200
C2076       C  0.33255762  0.33743709  0.75409721    -0.14000
C2077       C  0.32603374  0.34927746  0.77158113     0.24800
C2078       C  0.32636732  0.33906878  0.79016782    -0.19400
C2079       C  0.32233332  0.35136284  0.80733505    -0.07900
C2080       C  0.31809416  0.37405542  0.80606696    -0.03900
C2081       C  0.31730397  0.38401481  0.78726280    -0.09200
C2082       C  0.32126922  0.37169689  0.77016536    -0.16900
H2083       H  0.34676539  0.31496488  0.67249428     0.11300
H2084       H  0.32466768  0.32258886  0.70228202     0.10500
H2085       H  0.38348566  0.32176668  0.73797589     0.10500
H2086       H  0.40565707  0.31419339  0.70856482     0.11000
H2087       H  0.33027226  0.32175615  0.79142998     0.11100
H2088       H  0.32309053  0.34323386  0.82159519     0.11000
H2089       H  0.31403238  0.40142791  0.78576358     0.11200
H2090       H  0.32117464  0.37979420  0.75586103     0.10000
C2091       C  0.11764363  0.26443117  0.13670081    -0.03800
C2092       C  0.11066045  0.28352742  0.12673284    -0.09600
C2093       C  0.12369433  0.30260479  0.12694881    -0.17200
C2094       C  0.14378345  0.30285765  0.13721186     0.24900
C2095       C  0.15049395  0.28411677  0.14757880    -0.18900
C2096       C  0.13758628  0.26510402  0.14734630    -0.07800
C2097       C  0.15824982  0.32173184  0.13652696    -0.14200
C2098       C  0.17243110  0.33570760  0.13643125    -0.14000
C2099       C  0.19159360  0.34982837  0.13687524     0.24800
C2100       C  0.21157792  0.34129909  0.14371420    -0.19400
C2101       C  0.23060550  0.35419677  0.14356213    -0.07900
C2102       C  0.23009226  0.37596616  0.13648673    -0.03900
C2103       C  0.20985153  0.38461306  0.12991223    -0.09200
C2104       C  0.19071463  0.37160687  0.13011333    -0.16900
H2105       H  0.09547859  0.28352273  0.11831173     0.11300
H2106       H  0.11832319  0.31696729  0.11880315     0.10500
H2107       H  0.16599251  0.28403955  0.15554586     0.10500
H2108       H  0.14349914  0.25075038  0.15519009     0.11000
H2109       H  0.21253472  0.32449785  0.14895706     0.11100
H2110       H  0.24584293  0.34691682  0.14869395     0.11000
H2111       H  0.20888618  0.40125923  0.12432752     0.11200
H2112       H  0.17535391  0.37842600  0.12475752     0.10000
C2113       C  0.28625884  0.41072404  0.92604443    -0.03800
C2114       C  0.28745328  0.39043111  0.93600060    -0.09600
C2115       C  0.28667981  0.38957408  0.95674986    -0.17200
C2116       C  0.28470200  0.40895021  0.96783906     0.24900
C2117       C  0.28345964  0.42918739  0.95806545    -0.18900
C2118       C  0.28423329  0.43009352  0.93734869    -0.07800
C2119       C  0.28407674  0.40817253  0.98922481    -0.14200
C2120       C  0.28365595  0.40803910  0.00713758    -0.14000
C2121       C  0.28330583  0.40839836  0.02853892     0.24800
C2122       C  0.27896256  0.42804032  0.03863555    -0.19400
C2123       C  0.27894013  0.42854478  0.05938548    -0.07900
C2124       C  0.28320003  0.40935023  0.07037792    -0.03900
C2125       C  0.28742730  0.38964727  0.06009255    -0.09200
C2126       C  0.28750920  0.38920520  0.03932801    -0.16900
H2127       H  0.28907171  0.37522478  0.92777425     0.11300
H2128       H  0.28768263  0.37380633  0.96413783     0.10500
H2129       H  0.28195074  0.44430094  0.96646675     0.10500
H2130       H  0.28332185  0.44599167  0.93019846     0.11000
H2131       H  0.27569426  0.44300949  0.03046587     0.11100
H2132       H  0.27563218  0.44398332  0.06681074     0.11000
H2133       H  0.29087561  0.37461069  0.06808064     0.11200
H2134       H  0.29093892  0.37390881  0.03169379     0.10000
C2135       C  0.26855574  0.45947243  0.18669947    -0.03800
C2136       C  0.28181789  0.47578914  0.19543728    -0.09600
C2137       C  0.27511041  0.48656293  0.21264988    -0.17200
C2138       C  0.25504911  0.48126244  0.22160612     0.24900
C2139       C  0.24140326  0.46531796  0.21288246    -0.18900
C2140       C  0.24806494  0.45454540  0.19539889    -0.07800
C2141       C  0.24973427  0.49158124  0.24031277    -0.14200
C2142       C  0.24999991  0.50095339  0.25613464    -0.14000
C2143       C  0.25593474  0.51194263  0.27437270     0.24800
C2144       C  0.24089139  0.52483593  0.28509425    -0.19400
C2145       C  0.24775921  0.53610209  0.30225343    -0.07900
C2146       C  0.26977009  0.53467920  0.30870323    -0.03900
C2147       C  0.28455664  0.52149842  0.29786143    -0.09200
C2148       C  0.27769264  0.51027841  0.28093592    -0.16900
H2149       H  0.29761688  0.48010293  0.18907274     0.11300
H2150       H  0.28586271  0.49877822  0.21923347     0.10500
H2151       H  0.22588266  0.46095219  0.21974683     0.10500
H2152       H  0.23757960  0.44197683  0.18905343     0.11000
H2153       H  0.22401055  0.52636987  0.28010230     0.11100
H2154       H  0.23602576  0.54617106  0.31024018     0.11000
H2155       H  0.30159692  0.51990619  0.30237768     0.11200
H2156       H  0.28952383  0.50045985  0.27277683     0.10000
C2157       C  0.36265743  0.31434662  0.31121496    -0.03800
C2158       C  0.36798342  0.33155912  0.29812679    -0.09600
C2159       C  0.35572054  0.33507264  0.28102394    -0.17200
C2160       C  0.33785028  0.32153200  0.27655220     0.24900
C2161       C  0.33211085  0.30441753  0.28949380    -0.18900
C2162       C  0.34449231  0.30081721  0.30680536    -0.07800
C2163       C  0.32597996  0.32575540  0.25848146    -0.14200
C2164       C  0.31914611  0.33286352  0.24296898    -0.14000
C2165       C  0.31426894  0.34478521  0.22506192     0.24800
C2166       C  0.31775394  0.33519740  0.20643046    -0.19400
C2167       C  0.31558785  0.34782771  0.18917958    -0.07900
C2168       C  0.31015840  0.37027310  0.19041585    -0.03900
C2169       C  0.30621419  0.37958724  0.20919425    -0.09200
C2170       C  0.30826941  0.36693287  0.22635392    -0.16900
H2171       H  0.38181875  0.34234377  0.30097383     0.11300
H2172       H  0.36029934  0.34837517  0.27116843     0.10500
H2173       H  0.31824261  0.29384442  0.28616490     0.10500
H2174       H  0.34002179  0.28743408  0.31657926     0.11000
H2175       H  0.32269398  0.31814051  0.20526075     0.11100
H2176       H  0.31873981  0.34019163  0.17494726     0.11000
H2177       H  0.30188020  0.39677501  0.21067019     0.11200
H2178       H  0.30577397  0.37460475  0.24069017     0.10000
C2179       C  0.73828584  0.11709915  0.85838033    -0.03800
C2180       C  0.71865715  0.11017060  0.86759761    -0.09600
C2181       C  0.69986619  0.12370277  0.86750405    -0.17200
C2182       C  0.70040035  0.14428787  0.85812866     0.24900
C2183       C  0.71964643  0.15090883  0.84839507    -0.18900
C2184       C  0.73836098  0.13750047  0.84849687    -0.07800
C2185       C  0.68177396  0.15921185  0.85902214    -0.14200
C2186       C  0.66770694  0.17336689  0.85932381    -0.14000
C2187       C  0.65281449  0.19202676  0.85896263     0.24800
C2188       C  0.65988175  0.21180919  0.85052630    -0.19400
C2189       C  0.64607009  0.23020680  0.85038622    -0.07900
C2190       C  0.62478729  0.22928991  0.85872038    -0.03900
C2191       C  0.61765774  0.20928259  0.86703351    -0.09200
C2192       C  0.63158706  0.19079481  0.86715838    -0.16900
H2193       H  0.71802794  0.09463205  0.87538306     0.11300
H2194       H  0.68510505  0.11831294  0.87509727     0.10500
H2195       H  0.72036188  0.16672110  0.84104804     0.10500
H2196       H  0.75309954  0.14340121  0.84118706     0.11000
H2197       H  0.67622447  0.21309623  0.84417095     0.11100
H2198       H  0.65224212  0.24529117  0.84393917     0.11000
H2199       H  0.60149917  0.20802902  0.87373039     0.11200
H2200       H  0.62587491  0.17563298  0.87380376     0.10000
C2201       C  0.62784904  0.31084503  0.80498411    -0.03800
C2202       C  0.65074328  0.31404696  0.80646253    -0.09600
C2203       C  0.66343412  0.31732893  0.78939953    -0.17200
C2204       C  0.65341547  0.31730745  0.77070794     0.24900
C2205       C  0.63076777  0.31356232  0.76908449    -0.18900
C2206       C  0.61806097  0.31031347  0.78607532    -0.07800
C2207       C  0.66576270  0.32321926  0.75333146    -0.14200
C2208       C  0.67420143  0.33067086  0.73863968    -0.14000
C2209       C  0.68165270  0.34260534  0.72153123     0.24800
C2210       C  0.68004474  0.33339411  0.70255320    -0.19400
C2211       C  0.68427640  0.34629532  0.68580776    -0.07900
C2212       C  0.68992262  0.36861378  0.68791832    -0.03900
C2213       C  0.69237162  0.37741025  0.70708503    -0.09200
C2214       C  0.68824939  0.36448339  0.72375090    -0.16900
H2215       H  0.65876263  0.31450611  0.82079892     0.11300
H2216       H  0.68093344  0.32042917  0.79082097     0.10500
H2217       H  0.62281838  0.31371957  0.75469825     0.10500
H2218       H  0.60049850  0.30781706  0.78440340     0.11000
H2219       H  0.67478444  0.31650642  0.70067438     0.11100
H2220       H  0.68231106  0.33904409  0.67124217     0.11000
H2221       H  0.69687179  0.39447350  0.70921407     0.11200
H2222       H  0.68941999  0.37180452  0.73837048     0.10000
C2223       C  0.53948681  0.26731431  0.80821226    -0.03800
C2224       C  0.52612592  0.28204989  0.79753526    -0.09600
C2225       C  0.51522779  0.27536827  0.78041765    -0.17200
C2226       C  0.51736468  0.25384055  0.77350689     0.24900
C2227       C  0.53034388  0.23879360  0.78409044    -0.18900
C2228       C  0.54132972  0.24549131  0.80144930    -0.07800
C2229       C  0.50680265  0.24827151  0.75502033    -0.14200
C2230       C  0.49758640  0.24882148  0.73915960    -0.14000
C2231       C  0.48718089  0.25527652  0.72084256     0.24800
C2232       C  0.47391459  0.24080149  0.70990893    -0.19400
C2233       C  0.46335077  0.24808228  0.69257964    -0.07900
C2234       C  0.46587513  0.26995067  0.68614748    -0.03900
C2235       C  0.47934609  0.28421237  0.69723920    -0.09200
C2236       C  0.48988029  0.27692615  0.71437086    -0.16900
H2237       H  0.52419127  0.29894738  0.80228212     0.11300
H2238       H  0.50532231  0.28718522  0.77235920     0.10500
H2239       H  0.53219869  0.22207859  0.77881939     0.10500
H2240       H  0.55150167  0.23379622  0.80933986     0.11000
H2241       H  0.47158970  0.22402923  0.71484244     0.11100
H2242       H  0.45302617  0.23674944  0.68439229     0.11000
H2243       H  0.48172168  0.30112513  0.69273657     0.11200
H2244       H  0.50000515  0.28831830  0.72272707     0.10000
C2245       C  0.51470961  0.32011837  0.87422723    -0.03800
C2246       C  0.49632342  0.30636059  0.87705593    -0.09600
C2247       C  0.47538663  0.31534334  0.88051116    -0.17200
C2248       C  0.47251145  0.33818535  0.88128293     0.24900
C2249       C  0.49083396  0.35195192  0.87911015    -0.18900
C2250       C  0.51174054  0.34303042  0.87564535    -0.07800
C2251       C  0.45069942  0.34761258  0.88299825    -0.14200
C2252       C  0.43272095  0.35622031  0.88290352    -0.14000
C2253       C  0.41175118  0.36727463  0.88071094     0.24800
C2254       C  0.40926246  0.38312515  0.86587040    -0.19400
C2255       C  0.38884608  0.39312847  0.86269206    -0.07900
C2256       C  0.37041455  0.38746371  0.87430063    -0.03900
C2257       C  0.37313522  0.37190750  0.88956212    -0.09200
C2258       C  0.39367485  0.36186190  0.89271657    -0.16900
H2259       H  0.49798032  0.28868298  0.87598839     0.11300
H2260       H  0.46136135  0.30447769  0.88208371     0.10500
H2261       H  0.48888102  0.36964216  0.87959660     0.10500
H2262       H  0.52547875  0.35413408  0.87352858     0.11000
H2263       H  0.42305485  0.38748817  0.85646375     0.11100
H2264       H  0.38740644  0.40497678  0.85079355     0.11000
H2265       H  0.35928634  0.36707468  0.89868920     0.11200
H2266       H  0.39533971  0.34960400  0.90425401     0.10000
C2267       C  0.72922043  0.11647109  0.13626860    -0.03800
C2268       C  0.72859051  0.13675837  0.14636111    -0.09600
C2269       C  0.70945131  0.14956223  0.14655691    -0.17200
C2270       C  0.69045628  0.14247584  0.13668121     0.24900
C2271       C  0.69064334  0.12201433  0.12701695    -0.18900
C2272       C  0.70986413  0.10906345  0.12685891    -0.07800
C2273       C  0.67139863  0.15689563  0.13593650    -0.14200
C2274       C  0.65723339  0.17097553  0.13582883    -0.14000
C2275       C  0.64264005  0.18989470  0.13631965     0.24800
C2276       C  0.62259614  0.19007080  0.12593455    -0.19400
C2277       C  0.60948162  0.20914039  0.12557828    -0.07900
C2278       C  0.61630532  0.22837053  0.13550530    -0.03900
C2279       C  0.63618134  0.22777949  0.14626738    -0.09200
C2280       C  0.64914912  0.20876776  0.14667193    -0.16900
H2281       H  0.74308281  0.14300936  0.15383892     0.11300
H2282       H  0.70963184  0.16528716  0.15411354     0.10500
H2283       H  0.67610614  0.11626655  0.11928216     0.10500
H2284       H  0.70976633  0.09359794  0.11890407     0.11000
H2285       H  0.61731099  0.17564444  0.11780245     0.11100
H2286       H  0.59436603  0.20903792  0.11706141     0.11000
H2287       H  0.64198039  0.24220085  0.15411204     0.11200
H2288       H  0.66456147  0.20895694  0.15476906     0.10000
C2289       C  0.51066054  0.32304458  0.11688321    -0.03800
C2290       C  0.50825219  0.34597850  0.11514972    -0.09600
C2291       C  0.48751780  0.35530526  0.11178540    -0.17200
C2292       C  0.46887500  0.34189901  0.11005267     0.24900
C2293       C  0.47121432  0.31902729  0.11102984    -0.18900
C2294       C  0.49195378  0.30964710  0.11436079    -0.07800
C2295       C  0.44724298  0.35168560  0.10892851    -0.14200
C2296       C  0.42925026  0.36012084  0.10983975    -0.14000
C2297       C  0.40806593  0.37024275  0.11321206     0.24800
C2298       C  0.39011427  0.36566320  0.10081824    -0.19400
C2299       C  0.36926345  0.37433059  0.10517463    -0.07900
C2300       C  0.36610883  0.38762668  0.12204966    -0.03900
C2301       C  0.38440269  0.39259965  0.13406217    -0.09200
C2302       C  0.40516851  0.38396435  0.12967234    -0.16900
H2303       H  0.52227492  0.35678102  0.11702539     0.11300
H2304       H  0.48593624  0.37302465  0.11114965     0.10500
H2305       H  0.45691187  0.30846216  0.10982290     0.10500
H2306       H  0.49318860  0.29195858  0.11568459     0.11000
H2307       H  0.39212274  0.35504197  0.08804241     0.11100
H2308       H  0.35553284  0.37017548  0.09563396     0.11000
H2309       H  0.38259749  0.40278482  0.14714084     0.11200
H2310       H  0.41890029  0.38762629  0.13939213     0.10000
C2311       C  0.58584707  0.27982308  0.06805562    -0.03800
C2312       C  0.56654862  0.27831536  0.05657800    -0.09600
C2313       C  0.56778011  0.27767217  0.03590310    -0.17200
C2314       C  0.58826822  0.27851587  0.02645154     0.24900
C2315       C  0.60756308  0.27977098  0.03771765    -0.18900
C2316       C  0.60638652  0.28041912  0.05840175    -0.07800
C2317       C  0.58942954  0.27852640  0.00518521    -0.14200
C2318       C  0.58997021  0.27883682  0.98734501    -0.14000
C2319       C  0.58990027  0.27930850  0.96605716     0.24800
C2320       C  0.60900467  0.28495037  0.95562460    -0.19400
C2321       C  0.60881568  0.28543351  0.93489345    -0.07900
C2322       C  0.58944727  0.28035283  0.92439495    -0.03900
C2323       C  0.57032628  0.27476720  0.93505748    -0.09200
C2324       C  0.57058889  0.27421704  0.95574641    -0.16900
H2325       H  0.55048716  0.27783549  0.06354891     0.11300
H2326       H  0.55274811  0.27670541  0.02728766     0.10500
H2327       H  0.62350082  0.28043541  0.03051358     0.10500
H2328       H  0.62153672  0.28157721  0.06680774     0.11000
H2329       H  0.62401836  0.28899658  0.96350587     0.11100
H2330       H  0.62374398  0.28994595  0.92710794     0.11000
H2331       H  0.55514847  0.27079125  0.92742155     0.11200
H2332       H  0.55571044  0.26986355  0.96370322     0.10000
C2333       C  0.62238767  0.31098137  0.18751497    -0.03800
C2334       C  0.64486941  0.31635464  0.18609638    -0.09600
C2335       C  0.65728198  0.32007654  0.20321583    -0.17200
C2336       C  0.64742213  0.31824016  0.22188541     0.24900
C2337       C  0.62531992  0.31200972  0.22344599    -0.18900
C2338       C  0.61285178  0.30838697  0.20637185    -0.07800
C2339       C  0.65911309  0.32507843  0.23930970    -0.14200
C2340       C  0.66699995  0.33317170  0.25395717    -0.14000
C2341       C  0.67384067  0.34522387  0.27117888     0.24800
C2342       C  0.67450196  0.33501922  0.28974364    -0.19400
C2343       C  0.67862672  0.34746307  0.30677948    -0.07900
C2344       C  0.68196934  0.37028587  0.30538821    -0.03900
C2345       C  0.68195320  0.38024265  0.28656755    -0.09200
C2346       C  0.67787815  0.36777229  0.26959325    -0.16900
H2347       H  0.65267076  0.31842823  0.17177709     0.11300
H2348       H  0.67434254  0.32508088  0.20187357     0.10500
H2349       H  0.61751817  0.31068710  0.23784993     0.10500
H2350       H  0.59563167  0.30407705  0.20793349     0.11000
H2351       H  0.67121677  0.31758717  0.29111235     0.11100
H2352       H  0.67855036  0.33933713  0.32105693     0.11000
H2353       H  0.68455341  0.39776077  0.28498162     0.11200
H2354       H  0.67724240  0.37583739  0.25528449     0.10000
C2355       C  0.45058110  0.27267574  0.30314091    -0.03800
C2356       C  0.44701128  0.28409420  0.28528406    -0.09600
C2357       C  0.45803021  0.27795357  0.26796095    -0.17200
C2358       C  0.47273455  0.26025315  0.26809655     0.24900
C2359       C  0.47603483  0.24840313  0.28564500    -0.18900
C2360       C  0.46501260  0.25455303  0.30307349    -0.07800
C2361       C  0.48529926  0.25548683  0.25044143    -0.14200
C2362       C  0.49554297  0.25494435  0.23509100    -0.14000
C2363       C  0.50688864  0.25909954  0.21667748     0.24800
C2364       C  0.52276425  0.24457504  0.20908113    -0.19400
C2365       C  0.53471520  0.25014918  0.19193655    -0.07900
C2366       C  0.53100810  0.27040399  0.18247730    -0.03900
C2367       C  0.51456879  0.28445407  0.18995913    -0.09200
C2368       C  0.50264640  0.27883081  0.20684228    -0.16900
H2369       H  0.43608799  0.29814744  0.28476900     0.11300
H2370       H  0.45542848  0.28734830  0.25452003     0.10500
H2371       H  0.48746136  0.23474144  0.28596898     0.10500
H2372       H  0.46815123  0.24543928  0.31656129     0.11000
H2373       H  0.52622016  0.22924686  0.21660780     0.11100
H2374       H  0.54728754  0.23905390  0.18650239     0.11000
H2375       H  0.51111115  0.30006629  0.18291469     0.11200
H2376       H  0.49041729  0.29018838  0.21251819     0.10000
C2377       C  0.76886971  0.61616881  0.85720325    -0.03800
C2378       C  0.76820816  0.63732354  0.84871392    -0.09600
C2379       C  0.78705682  0.65055487  0.84806984    -0.17200
C2380       C  0.80705217  0.64300468  0.85582426     0.24900
C2381       C  0.80809118  0.62175725  0.86387575    -0.18900
C2382       C  0.78915635  0.60842313  0.86454887    -0.07800
C2383       C  0.82602118  0.65757492  0.85602058    -0.14200
C2384       C  0.84036444  0.67148301  0.85595769    -0.14000
C2385       C  0.85548113  0.69000106  0.85558131     0.24800
C2386       C  0.87561267  0.68944236  0.86581516    -0.19400
C2387       C  0.88924134  0.70814670  0.86643232    -0.07900
C2388       C  0.88285668  0.72775386  0.85692491    -0.03900
C2389       C  0.86292305  0.72787284  0.84622627    -0.09200
C2390       C  0.84943106  0.70922057  0.84557142    -0.16900
H2391       H  0.75295868  0.64391009  0.84289411     0.11300
H2392       H  0.78591741  0.66689925  0.84179243     0.10500
H2393       H  0.82341922  0.61563500  0.86994368     0.10500
H2394       H  0.79028346  0.59228169  0.87120834     0.11000
H2395       H  0.88056249  0.67472891  0.87366132     0.11100
H2396       H  0.90441217  0.70747066  0.87484596     0.11000
H2397       H  0.85746797  0.74258650  0.83866352     0.11200
H2398       H  0.83397099  0.70997131  0.83757737     0.10000
C2399       C  0.68555297  0.61965812  0.80546268    -0.03800
C2400       C  0.68177301  0.60953970  0.78701738    -0.09600
C2401       C  0.67802610  0.62225943  0.77017088    -0.17200
C2402       C  0.67816950  0.64518907  0.77151484     0.24900
C2403       C  0.68246903  0.65543099  0.78967318    -0.18900
C2404       C  0.68616720  0.64273449  0.80658860    -0.07800
C2405       C  0.67208023  0.65795982  0.75454966    -0.14200
C2406       C  0.66464192  0.66678255  0.74009552    -0.14000
C2407       C  0.65314134  0.67441523  0.72288799     0.24800
C2408       C  0.66202722  0.67093469  0.70401162    -0.19400
C2409       C  0.64933093  0.67513801  0.68717336    -0.07900
C2410       C  0.62752080  0.68260870  0.68911420    -0.03900
C2411       C  0.61908309  0.68695293  0.70813770    -0.09200
C2412       C  0.63184784  0.68286083  0.72492576    -0.16900
H2413       H  0.68118198  0.59181216  0.78567739     0.11300
H2414       H  0.67451333  0.61420785  0.75618063     0.10500
H2415       H  0.68245707  0.67318818  0.79084742     0.10500
H2416       H  0.68914681  0.65096863  0.82057881     0.11000
H2417       H  0.67843503  0.66419153  0.70232284     0.11100
H2418       H  0.65626016  0.67167564  0.67270435     0.11000
H2419       H  0.60241006  0.69290646  0.71006991     0.11200
H2420       H  0.62479516  0.68545402  0.73950539     0.10000
C2421       C  0.72978416  0.53144195  0.80959995    -0.03800
C2422       C  0.75243182  0.52976292  0.80529328    -0.09600
C2423       C  0.75963293  0.51840884  0.78828808    -0.17200
C2424       C  0.74425002  0.50865525  0.77547199     0.24900
C2425       C  0.72180038  0.51010596  0.77985604    -0.18900
C2426       C  0.71463138  0.52131981  0.79669105    -0.07800
C2427       C  0.75067376  0.49754981  0.75741352    -0.14200
C2428       C  0.75092039  0.48819483  0.74157663    -0.14000
C2429       C  0.74491779  0.47769609  0.72311340     0.24800
C2430       C  0.72256511  0.47636516  0.71837149    -0.19400
C2431       C  0.71577873  0.46639709  0.70080586    -0.07900
C2432       C  0.73121466  0.45745452  0.68745896    -0.03900
C2433       C  0.75376696  0.45878170  0.69224036    -0.09200
C2434       C  0.76058918  0.46889111  0.71000889    -0.16900
H2435       H  0.76450454  0.53729746  0.81496524     0.11300
H2436       H  0.77707992  0.51741477  0.78507172     0.10500
H2437       H  0.70971360  0.50268745  0.77009253     0.10500
H2438       H  0.69708650  0.52220425  0.79946479     0.11000
H2439       H  0.71025915  0.48306038  0.72833804     0.11100
H2440       H  0.69828651  0.46566911  0.69774558     0.11000
H2441       H  0.76604368  0.45202248  0.68231373     0.11200
H2442       H  0.77797184  0.46980050  0.71350989     0.10000
C2443       C  0.67673430  0.50817269  0.87586052    -0.03800
C2444       C  0.65377199  0.50489954  0.87577771    -0.09600
C2445       C  0.64489280  0.48403355  0.87908401    -0.17200
C2446       C  0.65875551  0.46611172  0.88263629     0.24900
C2447       C  0.68159613  0.46928115  0.88337120    -0.18900
C2448       C  0.69054783  0.49018491  0.88003434    -0.07800
C2449       C  0.64947962  0.44435938  0.88415029    -0.14200
C2450       C  0.64089976  0.42646418  0.88372804    -0.14000
C2451       C  0.63009276  0.40557146  0.88104000     0.24800
C2452       C  0.63502270  0.38767376  0.89331118    -0.19400
C2453       C  0.62555265  0.36706890  0.88957775    -0.07900
C2454       C  0.61111429  0.36414173  0.87345120    -0.03900
C2455       C  0.60575364  0.38242194  0.86163347    -0.09200
C2456       C  0.61518803  0.40293550  0.86540243    -0.16900
H2457       H  0.64264477  0.51832829  0.87253985     0.11300
H2458       H  0.62720739  0.48177937  0.87836526     0.10500
H2459       H  0.69250788  0.45550932  0.88600873     0.10500
H2460       H  0.70827548  0.49211783  0.88012663     0.11000
H2461       H  0.64653945  0.38951761  0.90546749     0.11100
H2462       H  0.63005067  0.35331969  0.89891682     0.11000
H2463       H  0.59469973  0.38076982  0.84911816     0.11200
H2464       H  0.61122570  0.41665469  0.85581413     0.10000
C2465       C  0.76452095  0.61753054  0.13720639    -0.03800
C2466       C  0.78473256  0.61073764  0.12896102    -0.09600
C2467       C  0.80322173  0.62469336  0.12942320    -0.17200
C2468       C  0.80180887  0.64559898  0.13817979     0.24900
C2469       C  0.78191871  0.65217756  0.14683449    -0.18900
C2470       C  0.76350679  0.63834457  0.14637062    -0.07800
C2471       C  0.82025594  0.66080804  0.13777905    -0.14200
C2472       C  0.83432178  0.67499040  0.13764306    -0.14000
C2473       C  0.84952016  0.69344094  0.13773522     0.24800
C2474       C  0.84441744  0.71230065  0.14873446    -0.19400
C2475       C  0.85816363  0.73077083  0.14803801    -0.07900
C2476       C  0.87742375  0.73078047  0.13636183    -0.03900
C2477       C  0.88279449  0.71157536  0.12573951    -0.09200
C2478       C  0.86889037  0.69308848  0.12636182    -0.16900
H2479       H  0.78609772  0.59491110  0.12171200     0.11300
H2480       H  0.81847488  0.61933366  0.12263743     0.10500
H2481       H  0.78049697  0.66824176  0.15366499     0.10500
H2482       H  0.74829451  0.64419630  0.15288733     0.11000
H2483       H  0.82954440  0.71289753  0.15760131     0.11100
H2484       H  0.85350699  0.74521431  0.15644916     0.11000
H2485       H  0.89737244  0.71107146  0.11649974     0.11200
H2486       H  0.87306519  0.67867146  0.11770983     0.10000
C2487       C  0.60793370  0.36425254  0.11836188    -0.03800
C2488       C  0.60041549  0.38307400  0.12847293    -0.09600
C2489       C  0.60970101  0.40367716  0.12472586    -0.17200
C2490       C  0.62668014  0.40589032  0.11083949     0.24900
C2491       C  0.63382665  0.38739987  0.10021266    -0.18900
C2492       C  0.62445993  0.36670906  0.10388619    -0.07800
C2493       C  0.63739735  0.42693866  0.10847866    -0.14200
C2494       C  0.64601852  0.44485684  0.10832276    -0.14000
C2495       C  0.65562876  0.46649815  0.11015595     0.24800
C2496       C  0.67846897  0.46904498  0.11208531    -0.19400
C2497       C  0.68752024  0.48982118  0.11591511    -0.07900
C2498       C  0.67380882  0.50833784  0.11799340    -0.03900
C2499       C  0.65094928  0.50570543  0.11534769    -0.09200
C2500       C  0.64196362  0.48496209  0.11148337    -0.16900
H2501       H  0.58767646  0.38181251  0.13965732     0.11300
H2502       H  0.60399470  0.41781640  0.13304850     0.10500
H2503       H  0.64698303  0.38887014  0.08944345     0.10500
H2504       H  0.63066646  0.35255275  0.09590915     0.11000
H2505       H  0.68923407  0.45488434  0.11118829     0.11100
H2506       H  0.70515401  0.49123959  0.11793974     0.11000
H2507       H  0.63990358  0.51957980  0.11683083     0.11200
H2508       H  0.62426955  0.48323732  0.11009609     0.10000
C2509       C  0.71755305  0.58440721  0.92520147    -0.03800
C2510       C  0.71597122  0.60477293  0.93503127    -0.09600
C2511       C  0.71632658  0.60579243  0.95577256    -0.17200
C2512       C  0.71827704  0.58650604  0.96693887     0.24900
C2513       C  0.72002426  0.56622202  0.95728681    -0.18900
C2514       C  0.71967135  0.56515190  0.93658804    -0.07800
C2515       C  0.71814525  0.58734090  0.98829077    -0.14200
C2516       C  0.71777171  0.58716207  0.00618043    -0.14000
C2517       C  0.71705234  0.58616451  0.02751853     0.24800
C2518       C  0.72113795  0.56627168  0.03725281    -0.19400
C2519       C  0.72011718  0.56513959  0.05795477    -0.07900
C2520       C  0.71505643  0.58395479  0.06922583    -0.03900
C2521       C  0.71103625  0.60389633  0.05929083    -0.09200
C2522       C  0.71200243  0.60496358  0.03858611    -0.16900
H2523       H  0.71428743  0.61989174  0.92671633     0.11300
H2524       H  0.71493719  0.62159071  0.96308978     0.10500
H2525       H  0.72151566  0.55118745  0.96577438     0.10500
H2526       H  0.72088887  0.54921055  0.92951974     0.11000
H2527       H  0.72502407  0.55160067  0.02883270     0.11100
H2528       H  0.72327127  0.54953912  0.06512054     0.11000
H2529       H  0.70697676  0.61865334  0.06750083     0.11200
H2530       H  0.70873602  0.62043336  0.03121420     0.10000
C2531       C  0.68074973  0.62089590  0.18811688    -0.03800
C2532       C  0.67469068  0.64311432  0.18621958    -0.09600
C2533       C  0.67055862  0.65587077  0.20306066    -0.17200
C2534       C  0.67262466  0.64663304  0.22195101     0.24900
C2535       C  0.67919292  0.62472069  0.22398672    -0.18900
C2536       C  0.68323379  0.61190728  0.20718882    -0.07800
C2537       C  0.66612042  0.65888325  0.23918970    -0.14200
C2538       C  0.65857850  0.66727264  0.25386368    -0.14000
C2539       C  0.64714589  0.67454611  0.27130861     0.24800
C2540       C  0.62570235  0.68271164  0.26960351    -0.19400
C2541       C  0.61313955  0.68662575  0.28658235    -0.07900
C2542       C  0.62191390  0.68240002  0.30549633    -0.03900
C2543       C  0.64384535  0.67515908  0.30710177    -0.09200
C2544       C  0.65634413  0.67114493  0.29007372    -0.16900
H2545       H  0.67259712  0.65048568  0.17173322     0.11300
H2546       H  0.66525834  0.67276015  0.20133701     0.10500
H2547       H  0.68065975  0.61737640  0.23855827     0.10500
H2548       H  0.68796463  0.59488686  0.20913256     0.11000
H2549       H  0.61839712  0.68526913  0.25512873     0.11100
H2550       H  0.59637114  0.69238486  0.28487889     0.11000
H2551       H  0.65106306  0.67179098  0.32146421     0.11200
H2552       H  0.67287541  0.66464750  0.29153380     0.10000
C2553       C  0.72515556  0.53196925  0.18552424    -0.03800
C2554       C  0.70990557  0.51923719  0.19629072    -0.09600
C2555       C  0.71612622  0.50832149  0.21354804    -0.17200
C2556       C  0.73771748  0.50978522  0.22055117     0.24900
C2557       C  0.75330175  0.52202300  0.20982005    -0.18900
C2558       C  0.74706527  0.53303437  0.19232951    -0.07800
C2559       C  0.74283862  0.49942871  0.23928463    -0.14200
C2560       C  0.74248192  0.49067689  0.25538789    -0.14000
C2561       C  0.73701740  0.48082636  0.27427292     0.24800
C2562       C  0.75036268  0.46466309  0.28296321    -0.19400
C2563       C  0.74362009  0.45417863  0.30051444    -0.07900
C2564       C  0.72331039  0.45954632  0.30935561    -0.03900
C2565       C  0.71031599  0.47608752  0.30070625    -0.09200
C2566       C  0.71715300  0.48665024  0.28339542    -0.16900
H2567       H  0.69292676  0.51786739  0.19153416     0.11300
H2568       H  0.70388704  0.49898348  0.22166513     0.10500
H2569       H  0.77009202  0.52334043  0.21510603     0.10500
H2570       H  0.75919229  0.54265133  0.18438250     0.11000
H2571       H  0.76570987  0.45987905  0.27600270     0.11100
H2572       H  0.75390523  0.44143209  0.30680511     0.11000
H2573       H  0.69467904  0.48071592  0.30721755     0.11200
H2574       H  0.70663473  0.49906028  0.27684241     0.10000
C2575       C  0.38260976  0.76768477  0.86011889    -0.03800
C2576       C  0.36200949  0.76838437  0.85055495    -0.09600
C2577       C  0.34956343  0.78768605  0.85037945    -0.17200
C2578       C  0.35741617  0.80667746  0.85971510     0.24900
C2579       C  0.37806839  0.80633817  0.86899783    -0.18900
C2580       C  0.39062354  0.78696813  0.86917224    -0.07800
C2581       C  0.34368144  0.82605098  0.86013367    -0.14200
C2582       C  0.32994995  0.84042456  0.85976451    -0.14000
C2583       C  0.31106252  0.85477389  0.85848538     0.24800
C2584       C  0.30994814  0.87443868  0.86931584    -0.19400
C2585       C  0.29053990  0.88700328  0.86922994    -0.07900
C2586       C  0.27200528  0.87989212  0.85843877    -0.03900
C2587       C  0.27366611  0.86055036  0.84705700    -0.09200
C2588       C  0.29299402  0.84814389  0.84710156    -0.16900
H2589       H  0.35528705  0.75388428  0.84346321     0.11300
H2590       H  0.33360724  0.78769722  0.84317966     0.10500
H2591       H  0.38431572  0.82090842  0.87632941     0.10500
H2592       H  0.40634394  0.78695398  0.87674954     0.11000
H2593       H  0.32381793  0.87974309  0.87821640     0.11100
H2594       H  0.28975851  0.90177661  0.87816772     0.11000
H2595       H  0.25978716  0.85464446  0.83848342     0.11200
H2596       H  0.29362063  0.83299516  0.83865236     0.10000
C2597       C  0.53823735  0.72601041  0.68744214    -0.03800
C2598       C  0.52579255  0.71126661  0.69900004    -0.09600
C2599       C  0.51501434  0.71826921  0.71613827    -0.17200
C2600       C  0.51632572  0.74016882  0.72227050     0.24900
C2601       C  0.52845469  0.75521137  0.71083576    -0.18900
C2602       C  0.53932141  0.74818026  0.69346204    -0.07800
C2603       C  0.50567764  0.74622266  0.74072909    -0.14200
C2604       C  0.49651081  0.74644338  0.75669940    -0.14000
C2605       C  0.48629974  0.74103761  0.77550575     0.24800
C2606       C  0.47174275  0.75538878  0.78526031    -0.19400
C2607       C  0.46118378  0.74880062  0.80289812    -0.07900
C2608       C  0.46494251  0.72771169  0.81080350    -0.03900
C2609       C  0.47984723  0.71370223  0.80099446    -0.09200
C2610       C  0.49038373  0.72030703  0.78361491    -0.16900
H2611       H  0.52445126  0.69410886  0.69489937     0.11300
H2612       H  0.50578883  0.70642045  0.72479422     0.10500
H2613       H  0.52969894  0.77222821  0.71542101     0.10500
H2614       H  0.54875577  0.75994442  0.68493035     0.11000
H2615       H  0.46830634  0.77145791  0.77911006     0.11100
H2616       H  0.44971975  0.75990884  0.81003512     0.11000
H2617       H  0.48325578  0.69740344  0.80664994     0.11200
H2618       H  0.50150707  0.70899276  0.77626931     0.10000
C2619       C  0.37634288  0.68542991  0.80622629    -0.03800
C2620       C  0.35477094  0.67709314  0.80710524    -0.09600
C2621       C  0.34320835  0.67252171  0.78965085    -0.17200
C2622       C  0.35297016  0.67649219  0.77119201     0.24900
C2623       C  0.37403470  0.68572397  0.77021553    -0.18900
C2624       C  0.38567318  0.69016587  0.78761670    -0.07800
C2625       C  0.34242291  0.66901514  0.75335030    -0.14200
C2626       C  0.33506817  0.66060373  0.73859802    -0.14000
C2627       C  0.32813251  0.64826734  0.72152778     0.24800
C2628       C  0.32777054  0.65800107  0.70274260    -0.19400
C2629       C  0.32298744  0.64529547  0.68598755    -0.07900
C2630       C  0.31866807  0.62266472  0.68786581    -0.03900
C2631       C  0.31847756  0.61320589  0.70688770    -0.09200
C2632       C  0.32320892  0.62593541  0.72357976    -0.16900
H2633       H  0.34720600  0.67324099  0.82122528     0.11300
H2634       H  0.32696990  0.66520610  0.79054794     0.10500
H2635       H  0.38177591  0.68876192  0.75600015     0.10500
H2636       H  0.40219937  0.69675593  0.78649469     0.11000
H2637       H  0.33167159  0.67526422  0.70099649     0.11100
H2638       H  0.32322610  0.65306133  0.67154844     0.11000
H2639       H  0.31512083  0.59586523  0.70885424     0.11200
H2640       H  0.32353759  0.61823096  0.73805713     0.10000
C2641       C  0.63304891  0.60511345  0.87416713    -0.03800
C2642       C  0.61413096  0.59636521  0.86501687    -0.09600
C2643       C  0.59340954  0.60581457  0.86819701    -0.17200
C2644       C  0.59118084  0.62423228  0.88049969     0.24900
C2645       C  0.60980604  0.63266618  0.89017626    -0.18900
C2646       C  0.63058520  0.62311815  0.88711664    -0.07800
C2647       C  0.56997526  0.63496378  0.88227957    -0.14200
C2648       C  0.55203808  0.64367467  0.88241278    -0.14000
C2649       C  0.53042628  0.65365764  0.88115389     0.24800
C2650       C  0.52822388  0.67652782  0.87973364    -0.19400
C2651       C  0.50740901  0.68604708  0.87702294    -0.07900
C2652       C  0.48844299  0.67281119  0.87555805    -0.03900
C2653       C  0.49076129  0.64988789  0.87752293    -0.09200
C2654       C  0.51156817  0.64042248  0.88029956    -0.16900
H2655       H  0.61541649  0.58249873  0.85500189     0.11300
H2656       H  0.57918518  0.59907335  0.86063164     0.10500
H2657       H  0.60836493  0.64693024  0.89971386     0.10500
H2658       H  0.64481815  0.63034129  0.89427596     0.11000
H2659       H  0.54265148  0.68698791  0.88027848     0.11100
H2660       H  0.50627040  0.70371405  0.87542430     0.11000
H2661       H  0.47655233  0.63919758  0.87642268     0.11200
H2662       H  0.51299172  0.62271349  0.88132029     0.10000
C2663       C  0.38995952  0.63186460  0.87454568    -0.03800
C2664       C  0.39552746  0.61351669  0.86284188    -0.09600
C2665       C  0.38625178  0.59293229  0.86662942    -0.17200
C2666       C  0.37124762  0.59021080  0.88217688     0.24900
C2667       C  0.36585742  0.60824763  0.89419961    -0.18900
C2668       C  0.37517739  0.62895497  0.89043770    -0.07800
C2669       C  0.36108945  0.56897078  0.88512680    -0.14200
C2670       C  0.35330275  0.55067863  0.88564132    -0.14000
C2671       C  0.34481409  0.52853963  0.88406468     0.24800
C2672       C  0.32227157  0.52436323  0.88638756    -0.19400
C2673       C  0.31382283  0.50329526  0.88276373    -0.07900
C2674       C  0.32781685  0.48607511  0.87673474    -0.03900
C2675       C  0.35055983  0.49025381  0.87518170    -0.09200
C2676       C  0.35894676  0.51132477  0.87875253    -0.16900
H2677       H  0.40679668  0.61511578  0.85047866     0.11300
H2678       H  0.39056106  0.57915785  0.85719871     0.10500
H2679       H  0.35423385  0.60639045  0.90627054     0.10500
H2680       H  0.37046011  0.64274363  0.89967029     0.11000
H2681       H  0.31112674  0.53752475  0.89043606     0.11100
H2682       H  0.29624983  0.50065748  0.88411720     0.11000
H2683       H  0.36180074  0.47744038  0.87051294     0.11200
H2684       H  0.37640401  0.51432770  0.87681264     0.10000
C2685       C  0.37802500  0.76308539  0.13713352    -0.03800
C2686       C  0.38352158  0.78157163  0.12559894    -0.09600
C2687       C  0.36980897  0.80017153  0.12542387    -0.17200
C2688       C  0.35054482  0.80063123  0.13691315     0.24900
C2689       C  0.34539882  0.78256668  0.14889704    -0.18900
C2690       C  0.35895099  0.76396773  0.14898930    -0.07800
C2691       C  0.33541589  0.81902729  0.13592628    -0.14200
C2692       C  0.32122479  0.83302857  0.13559869    -0.14000
C2693       C  0.30255326  0.84787515  0.13589596     0.24800
C2694       C  0.28284058  0.84103298  0.14469438    -0.19400
C2695       C  0.26431872  0.85469000  0.14453575    -0.07900
C2696       C  0.26508257  0.87557441  0.13555785    -0.03900
C2697       C  0.28507462  0.88255439  0.12701793    -0.09200
C2698       C  0.30366591  0.86877177  0.12716174    -0.16900
H2699       H  0.39797846  0.78135607  0.11619513     0.11300
H2700       H  0.37400051  0.81398462  0.11603406     0.10500
H2701       H  0.33059563  0.78264873  0.15787391     0.10500
H2702       H  0.35424356  0.75007071  0.15807310     0.11000
H2703       H  0.28168081  0.82494889  0.15149562     0.11100
H2704       H  0.24925531  0.84870345  0.15122411     0.11000
H2705       H  0.28620588  0.89843083  0.11985667     0.11200
H2706       H  0.31878677  0.87430113  0.12025302     0.10000
C2707       C  0.48575468  0.67083948  0.12089207    -0.03800
C2708       C  0.50418653  0.68455089  0.11809426    -0.09600
C2709       C  0.52487717  0.67554892  0.11371014    -0.17200
C2710       C  0.52743023  0.65274742  0.11193605     0.24900
C2711       C  0.50904289  0.63906141  0.11405193    -0.18900
C2712       C  0.48837977  0.64800239  0.11848342    -0.07800
C2713       C  0.54906734  0.64320198  0.10954346    -0.14200
C2714       C  0.56697360  0.63450201  0.10943702    -0.14000
C2715       C  0.58791997  0.62353319  0.11179164     0.24800
C2716       C  0.59026797  0.60759481  0.12657844    -0.19400
C2717       C  0.61081176  0.59809251  0.13027356    -0.07900
C2718       C  0.62945077  0.60436830  0.11922106    -0.03900
C2719       C  0.62683157  0.61983564  0.10388109    -0.09200
C2720       C  0.60619397  0.62940328  0.10023878    -0.16900
H2721       H  0.50277253  0.70217978  0.11988207     0.11300
H2722       H  0.53897896  0.68633336  0.11222698     0.10500
H2723       H  0.51078512  0.62139360  0.11281274     0.10500
H2724       H  0.47456707  0.63696697  0.12049419     0.11000
H2725       H  0.57629365  0.60289360  0.13562831     0.11100
H2726       H  0.61219751  0.58623766  0.14217312     0.11000
H2727       H  0.64085003  0.62509013  0.09516210     0.11200
H2728       H  0.60462217  0.64174219  0.08876064     0.10000
C2729       C  0.32326545  0.48333101  0.12134044    -0.03800
C2730       C  0.34625947  0.48609316  0.12015241    -0.09600
C2731       C  0.35538651  0.50679898  0.11636095    -0.17200
C2732       C  0.34173505  0.52509330  0.11364645     0.24900
C2733       C  0.31882187  0.52239688  0.11419368    -0.18900
C2734       C  0.30963906  0.50167431  0.11796368    -0.07800
C2735       C  0.35130316  0.54675871  0.11169286    -0.14200
C2736       C  0.35979613  0.56475286  0.11168153    -0.14000
C2737       C  0.37038908  0.58592648  0.11379111     0.24800
C2738       C  0.36240164  0.60445580  0.10375695    -0.19400
C2739       C  0.37172430  0.62522152  0.10723745    -0.07900
C2740       C  0.38902776  0.62773642  0.12096152    -0.03900
C2741       C  0.39733977  0.60891086  0.13048000    -0.09200
C2742       C  0.38812733  0.58821615  0.12688677    -0.16900
H2743       H  0.35724835  0.47236509  0.12267401     0.11300
H2744       H  0.37313257  0.50863590  0.11605520     0.10500
H2745       H  0.30805011  0.53641158  0.11220838     0.10500
H2746       H  0.29189548  0.50016369  0.11882293     0.11000
H2747       H  0.34864126  0.60295205  0.09362283     0.11100
H2748       H  0.36485053  0.63939547  0.09977548     0.11000
H2749       H  0.41066370  0.61024524  0.14108837     0.11200
H2750       H  0.39448770  0.57405638  0.13475067     0.10000
C2751       C  0.41224468  0.71503050  0.92666001    -0.03800
C2752       C  0.43141553  0.71431186  0.93835980    -0.09600
C2753       C  0.43002671  0.71504781  0.95904480    -0.17200
C2754       C  0.40950426  0.71657105  0.96838399     0.24900
C2755       C  0.39030856  0.71743738  0.95690457    -0.18900
C2756       C  0.39164706  0.71665054  0.93617654    -0.07800
C2757       C  0.40830692  0.71683613  0.98973559    -0.14200
C2758       C  0.40829941  0.71653557  0.00763389    -0.14000
C2759       C  0.40918093  0.71557191  0.02897636     0.24800
C2760       C  0.38987323  0.71264892  0.03999312    -0.19400
C2761       C  0.39083039  0.71120009  0.06067652    -0.07900
C2762       C  0.41116059  0.71262627  0.07064522    -0.03900
C2763       C  0.43047758  0.71563702  0.05943726    -0.09200
C2764       C  0.42946541  0.71710858  0.03875328    -0.16900
H2765       H  0.44751071  0.71300333  0.93154243     0.11300
H2766       H  0.44499084  0.71431104  0.96777027     0.10500
H2767       H  0.37431950  0.71859357  0.96396322     0.10500
H2768       H  0.37657084  0.71726363  0.92761971     0.11000
H2769       H  0.37408653  0.71137589  0.03259381     0.11100
H2770       H  0.37565394  0.70885111  0.06884056     0.11000
H2771       H  0.44637880  0.71680157  0.06663166     0.11200
H2772       H  0.44452927  0.71932449  0.03037459     0.10000
C2773       C  0.53328264  0.72818862  0.31050113    -0.03800
C2774       C  0.54078421  0.74685103  0.30020642    -0.09600
C2775       C  0.53023699  0.75357283  0.28263139    -0.17200
C2776       C  0.51190677  0.74191395  0.27546028     0.24900
C2777       C  0.50387719  0.72399917  0.28622583    -0.18900
C2778       C  0.51447199  0.71715489  0.30349560    -0.07800
C2779       C  0.50218842  0.74651496  0.25631467    -0.14200
C2780       C  0.49327104  0.74573123  0.24027133    -0.14000
C2781       C  0.48275709  0.73939026  0.22187046     0.24800
C2782       C  0.48557758  0.71784818  0.21511724    -0.19400
C2783       C  0.47468935  0.71052286  0.19813842    -0.07900
C2784       C  0.46071361  0.72462410  0.18740155    -0.03900
C2785       C  0.45813929  0.74643657  0.19403730    -0.09200
C2786       C  0.46904364  0.75375565  0.21125062    -0.16900
H2787       H  0.55531516  0.75555383  0.30521886     0.11300
H2788       H  0.53674364  0.76738299  0.27437739     0.10500
H2789       H  0.48980173  0.71477841  0.28087740     0.10500
H2790       H  0.50820500  0.70282898  0.31117469     0.11000
H2791       H  0.49601929  0.70651721  0.22318841     0.11100
H2792       H  0.47718035  0.69366816  0.19348185     0.11000
H2793       H  0.44745376  0.75766523  0.18614384     0.11200
H2794       H  0.46657593  0.77044859  0.21637426     0.10000
C2795       C  0.30999809  0.62593579  0.30583003    -0.03800
C2796       C  0.31712178  0.64783040  0.30777396    -0.09600
C2797       C  0.32079807  0.66068795  0.29094475    -0.17200
C2798       C  0.31713143  0.65188004  0.27206651     0.24900
C2799       C  0.30923991  0.63040333  0.27004088    -0.18900
C2800       C  0.30569544  0.61747684  0.28681417    -0.07800
C2801       C  0.32387025  0.66375897  0.25475160    -0.14200
C2802       C  0.33196041  0.67131620  0.23998399    -0.14000
C2803       C  0.34418570  0.67708791  0.22256531     0.24800
C2804       C  0.33599077  0.67169083  0.20380010    -0.19400
C2805       C  0.34926806  0.67428024  0.18705171    -0.07900
C2806       C  0.37099015  0.68202414  0.18898192    -0.03900
C2807       C  0.37883399  0.68805461  0.20782397    -0.09200
C2808       C  0.36546760  0.68561921  0.22451617    -0.16900
H2809       H  0.32062900  0.65475183  0.32223563     0.11300
H2810       H  0.32717251  0.67721594  0.29263152     0.10500
H2811       H  0.30655785  0.62338830  0.25546137     0.10500
H2812       H  0.30008054  0.60071615  0.28487725     0.11000
H2813       H  0.31962502  0.66481588  0.20218944     0.11100
H2814       H  0.34280468  0.66952327  0.17270667     0.11000
H2815       H  0.39541574  0.69428522  0.20969738     0.11200
H2816       H  0.37200476  0.68965943  0.23902098     0.10000
loop_ 
_geom_bond_atom_site_label_1 
_geom_bond_atom_site_label_2 
_geom_bond_distance 
_geom_bond_site_symmetry_2 
_ccdc_geom_bond_type 
O1          Cr19   2.005       .  S
O1            C9   1.266       .  A
O2          Cr19   1.974       .  S
O2            C3   1.258       .  A
C3            O4   1.268       .  A
C3         C2685   1.488       .  S
O4          Cr20   2.026       .  S
O5          Cr20   2.000       .  S
O5            C6   1.264       .  A
C6            O7   1.264       .  A
C6         C2784   1.488       .  S
O7          Cr21   2.002       .  S
O8          Cr21   1.974       .  S
O8            C9   1.261       .  A
C9         C2806   1.474       .  S
O10         Cr19   1.985       .  S
O10          C18   1.261       .  A
O11         Cr19   2.006       .  S
O11          C12   1.267       .  A
C12          O13   1.262       .  A
C12        C2762   1.483       .  S
O13         Cr20   1.978       .  S
O14         Cr20   2.026       .  S
O14          C15   1.272       .  A
C15          O16   1.263       .  A
C15        C2707   1.487       .  S
O16         Cr21   1.976       .  S
O17         Cr21   2.008       .  S
O17          C18   1.265       .  A
C18        C2740   1.486       .  S
Cr19         O22   1.772       .  S
Cr20         O22   1.774       .  S
Cr21         O22   1.766       .  S
O23         Cr41   1.968       .  S
O23          C31   1.260       .  A
O24         Cr41   2.000       .  S
O24          C25   1.264       .  A
C25          O26   1.264       .  A
C25        C2608   1.488       .  S
O26         Cr42   2.004       .  S
O27         Cr42   2.022       .  S
O27          C28   1.268       .  A
C28          O29   1.258       .  A
C28        C2575   1.486       .  S
O29         Cr43   1.970       .  S
O30         Cr43   2.015       .  S
O30          C31   1.268       .  A
C31        C2619   1.476       .  S
O32         Cr41   2.007       .  S
O32          C40   1.265       .  A
O33         Cr41   1.976       .  S
O33          C34   1.262       .  A
C34          O35   1.272       .  A
C34        C2652   1.488       .  S
O35         Cr42   2.029       .  S
O36         Cr42   1.979       .  S
O36          C37   1.264       .  A
C37          O38   1.268       .  A
C37        C2751   1.484       .  S
O38         Cr43   2.012       .  S
O39         Cr43   1.985       .  S
O39          C40   1.260       .  A
C40        C2663   1.487       .  S
Cr41         O44   1.764       .  S
Cr42         O44   1.772       .  S
Cr43         O44   1.773       .  S
O45         Cr63   2.011       .  S
O45          C53   1.269       .  A
O46         Cr63   1.971       .  S
O46          C47   1.258       .  A
C47          O48   1.270       .  A
C47        C2465   1.494       .  S
O48         Cr64   2.032       .  S
O49         Cr64   2.004       .  S
O49          C50   1.264       .  A
C50          O51   1.263       .  A
C50        C2553   1.489       .  S
O51         Cr65   1.995       .  S
O52         Cr65   1.971       .  S
O52          C53   1.262       .  A
C53        C2531   1.477       .  S
O54         Cr63   1.986       .  S
O54          C62   1.259       .  A
O55         Cr63   2.005       .  S
O55          C56   1.267       .  A
C56          O57   1.262       .  A
C56        C2520   1.483       .  S
O57         Cr64   1.979       .  S
O58         Cr64   2.031       .  S
O58          C59   1.273       .  A
C59          O60   1.262       .  A
C59        C2498   1.486       .  S
O60         Cr65   1.972       .  S
O61         Cr65   2.004       .  S
O61          C62   1.263       .  A
C62        C2718   1.486       .  S
Cr63         O66   1.772       .  S
Cr64         O66   1.777       .  S
Cr65         O66   1.767       .  S
O67         Cr85   1.965       .  S
O67          C75   1.260       .  A
O68         Cr85   2.001       .  S
O68          C69   1.264       .  A
C69          O70   1.263       .  A
C69        C2421   1.487       .  S
O70         Cr86   1.996       .  S
O71         Cr86   2.031       .  S
O71          C72   1.270       .  A
C72          O73   1.258       .  A
C72        C2377   1.494       .  S
O73         Cr87   1.972       .  S
O74         Cr87   2.008       .  S
O74          C75   1.268       .  A
C75        C2399   1.474       .  S
O76         Cr85   2.006       .  S
O76          C84   1.264       .  A
O77         Cr85   1.968       .  S
O77          C78   1.261       .  A
C78          O79   1.272       .  A
C78        C2443   1.484       .  S
O79         Cr86   2.028       .  S
O80         Cr86   1.973       .  S
O80          C81   1.261       .  A
C81          O82   1.268       .  A
C81        C2509   1.483       .  S
O82         Cr87   2.009       .  S
O83         Cr87   1.988       .  S
O83          C84   1.260       .  A
C84        C2641   1.488       .  S
Cr85         O88   1.768       .  S
Cr86         O88   1.776       .  S
Cr87         O88   1.773       .  S
O89        Cr107   2.008       .  S
O89          C97   1.268       .  A
O90        Cr107   1.975       .  S
O90          C91   1.259       .  A
C91          O92   1.269       .  A
C91        C2278   1.493       .  S
O92        Cr108   2.029       .  S
O93        Cr108   1.999       .  S
O93          C94   1.263       .  A
C94          O95   1.262       .  A
C94        C2366   1.481       .  S
O95        Cr109   1.993       .  S
O96        Cr109   1.970       .  S
O96          C97   1.261       .  A
C97        C2333   1.476       .  S
O98        Cr107   1.989       .  S
O98         C106   1.261       .  A
O99        Cr107   2.005       .  S
O99         C100   1.267       .  A
C100        O101   1.261       .  A
C100       C2311   1.479       .  S
O101       Cr108   1.971       .  S
O102       Cr108   2.027       .  S
O102        C103   1.272       .  A
C103        O104   1.263       .  A
C103       C2289   1.486       .  S
O104       Cr109   1.975       .  S
O105       Cr109   2.001       .  S
O105        C106   1.263       .  A
C106       C2487   1.486       .  S
Cr107       O110   1.772       .  S
Cr108       O110   1.774       .  S
Cr109       O110   1.766       .  S
O111       Cr129   1.967       .  S
O111        C119   1.261       .  A
O112       Cr129   1.993       .  S
O112        C113   1.263       .  A
C113        O114   1.263       .  A
C113       C2223   1.484       .  S
O114       Cr130   1.998       .  S
O115       Cr130   2.034       .  S
O115        C116   1.270       .  A
C116        O117   1.257       .  A
C116       C2190   1.493       .  S
O117       Cr131   1.968       .  S
O118       Cr131   2.016       .  S
O118        C119   1.270       .  A
C119       C2201   1.479       .  S
O120       Cr129   2.002       .  S
O120        C128   1.262       .  A
O121       Cr129   1.973       .  S
O121        C122   1.263       .  A
C122        O123   1.274       .  A
C122       C2245   1.489       .  S
O123       Cr130   2.035       .  S
O124       Cr130   1.967       .  S
O124        C125   1.260       .  A
C125        O126   1.268       .  A
C125       C2322   1.478       .  S
O126       Cr131   2.008       .  S
O127       Cr131   1.981       .  S
O127        C128   1.258       .  A
C128       C2454   1.482       .  S
Cr129       O132   1.765       .  S
Cr130       O132   1.774       .  S
Cr131       O132   1.771       .  S
O133       Cr151   2.020       .  S
O133        C141   1.270       .  A
O134       Cr151   1.968       .  S
O134        C135   1.258       .  A
C135        O136   1.268       .  A
C135       C2102   1.489       .  S
O136       Cr152   2.025       .  S
O137       Cr152   2.000       .  S
O137        C138   1.263       .  A
C138        O139   1.263       .  A
C138       C2135   1.484       .  S
O139       Cr153   1.998       .  S
O140       Cr153   1.970       .  S
O140        C141   1.261       .  A
C141       C2168   1.482       .  S
O142       Cr151   1.982       .  S
O142        C150   1.258       .  A
O143       Cr151   2.011       .  S
O143        C144   1.268       .  A
C144        O145   1.262       .  A
C144       C2124   1.485       .  S
O145       Cr152   1.976       .  S
O146       Cr152   2.029       .  S
O146        C147   1.273       .  A
C147        O148   1.263       .  A
C147       C2729   1.487       .  S
O148       Cr153   1.974       .  S
O149       Cr153   2.006       .  S
O149        C150   1.264       .  A
C150       C2300   1.485       .  S
Cr151       O154   1.771       .  S
Cr152       O154   1.774       .  S
Cr153       O154   1.767       .  S
O155       Cr173   1.969       .  S
O155        C163   1.261       .  A
O156       Cr173   1.998       .  S
O156        C157   1.264       .  A
C157        O158   1.264       .  A
C157       C2047   1.488       .  S
O158       Cr174   2.001       .  S
O159       Cr174   2.025       .  S
O159        C160   1.268       .  A
C160        O161   1.258       .  A
C160       C2036   1.492       .  S
O161       Cr175   1.976       .  S
O162       Cr175   2.014       .  S
O162        C163   1.269       .  A
C163       C2080   1.479       .  S
O164       Cr173   2.004       .  S
O164        C172   1.264       .  A
O165       Cr173   1.977       .  S
O165        C166   1.263       .  A
C166        O167   1.271       .  A
C166       C2674   1.487       .  S
O167       Cr174   2.024       .  S
O168       Cr174   1.975       .  S
O168        C169   1.262       .  A
C169        O170   1.269       .  A
C169       C2113   1.485       .  S
O170       Cr175   2.014       .  S
O171       Cr175   1.989       .  S
O171        C172   1.261       .  A
C172       C2256   1.489       .  S
Cr173       O176   1.768       .  S
Cr174       O176   1.776       .  S
Cr175       O176   1.775       .  S
O177       Cr195   2.013       .  S
O177        C185   1.269       .  A
O178       Cr195   1.976       .  S
O178        C179   1.258       .  A
C179        O180   1.268       .  A
C179       C1937   1.491       .  S
O180       Cr196   2.026       .  S
O181       Cr196   1.992       .  S
O181        C182   1.262       .  A
C182        O183   1.266       .  A
C182       C2564   1.484       .  S
O183       Cr197   2.010       .  S
O184       Cr197   1.966       .  S
O184        C185   1.260       .  A
C185       C2344   1.477       .  S
O186       Cr195   1.984       .  S
O186        C194   1.260       .  A
O187       Cr195   2.016       .  S
O187        C188   1.270       .  A
C188        O189   1.261       .  A
C188       C2003   1.483       .  S
O189       Cr196   1.969       .  S
O190       Cr196   2.029       .  S
O190        C191   1.272       .  A
C191        O192   1.261       .  A
C191       C1959   1.486       .  S
O192       Cr197   1.973       .  S
O193       Cr197   2.011       .  S
O193        C194   1.265       .  A
C194       C1992   1.489       .  S
Cr195       O198   1.771       .  S
Cr196       O198   1.772       .  S
Cr197       O198   1.767       .  S
O199       Cr217   1.972       .  S
O199        C207   1.261       .  A
O200       Cr217   1.994       .  S
O200        C201   1.263       .  A
C201        O202   1.264       .  A
C201       C2432   1.488       .  S
O202       Cr218   2.001       .  S
O203       Cr218   2.034       .  S
O203        C204   1.271       .  A
C204        O205   1.259       .  A
C204       C1871   1.493       .  S
O205       Cr219   1.971       .  S
O206       Cr219   2.013       .  S
O206        C207   1.268       .  A
C207       C2212   1.479       .  S
O208       Cr217   2.003       .  S
O208        C216   1.264       .  A
O209       Cr217   1.976       .  S
O209        C210   1.263       .  A
C210        O211   1.274       .  A
C210       C1893   1.494       .  S
O211       Cr218   2.036       .  S
O212       Cr218   1.980       .  S
O212        C213   1.263       .  A
C213        O214   1.267       .  A
C213       C2014   1.484       .  S
O214       Cr219   2.005       .  S
O215       Cr219   1.987       .  S
O215        C216   1.260       .  A
C216       C1915   1.486       .  S
Cr217       O220   1.766       .  S
Cr218       O220   1.775       .  S
Cr219       O220   1.773       .  S
O221       Cr239   2.012       .  S
O221        C229   1.269       .  A
O222       Cr239   1.974       .  S
O222        C223   1.259       .  A
C223        O224   1.267       .  A
C223       C1805   1.488       .  S
O224       Cr240   2.018       .  S
O225       Cr240   2.002       .  S
O225        C226   1.263       .  A
C226        O227   1.263       .  A
C226       C2773   1.483       .  S
O227       Cr241   2.001       .  S
O228       Cr241   1.971       .  S
O228        C229   1.262       .  A
C229       C2542   1.477       .  S
O230       Cr239   1.985       .  S
O230        C238   1.260       .  A
O231       Cr239   2.008       .  S
O231        C232   1.268       .  A
C232        O233   1.262       .  A
C232       C1849   1.485       .  S
O233       Cr240   1.980       .  S
O234       Cr240   2.021       .  S
O234        C235   1.271       .  A
C235        O236   1.262       .  A
C235       C1838   1.479       .  S
O236       Cr241   1.971       .  S
O237       Cr241   2.006       .  S
O237        C238   1.263       .  A
C238       C1970   1.486       .  S
Cr239       O242   1.770       .  S
Cr240       O242   1.773       .  S
Cr241       O242   1.768       .  S
O243       Cr261   1.968       .  S
O243        C251   1.261       .  A
O244       Cr261   2.000       .  S
O244        C245   1.263       .  A
C245        O246   1.263       .  A
C245       C2597   1.492       .  S
O246       Cr262   2.005       .  S
O247       Cr262   2.022       .  S
O247        C248   1.268       .  A
C248        O249   1.259       .  A
C248       C1761   1.488       .  S
O249       Cr263   1.972       .  S
O250       Cr263   2.010       .  S
O250        C251   1.268       .  A
C251       C2410   1.474       .  S
O252       Cr261   2.010       .  S
O252        C260   1.265       .  A
O253       Cr261   1.969       .  S
O253        C254   1.263       .  A
C254        O255   1.273       .  A
C254       C1783   1.485       .  S
O255       Cr262   2.028       .  S
O256       Cr262   1.978       .  S
O256        C257   1.262       .  A
C257        O258   1.267       .  A
C257       C1860   1.485       .  S
O258       Cr263   2.008       .  S
O259       Cr263   1.993       .  S
O259        C260   1.261       .  A
C260       C1904   1.493       .  S
Cr261       O264   1.766       .  S
Cr262       O264   1.776       .  S
Cr263       O264   1.774       .  S
O265       Cr283   2.011       .  S
O265        C273   1.268       .  A
O266       Cr283   1.965       .  S
O266        C267   1.257       .  A
C267        O268   1.271       .  A
C267       C1695   1.488       .  S
O268       Cr284   2.034       .  S
O269       Cr284   2.000       .  S
O269        C270   1.263       .  A
C270        O271   1.263       .  A
C270       C2146   1.485       .  S
O271       Cr285   1.996       .  S
O272       Cr285   1.970       .  S
O272        C273   1.261       .  A
C273       C2795   1.475       .  S
O274       Cr283   1.980       .  S
O274        C282   1.259       .  A
O275       Cr283   2.009       .  S
O275        C276   1.267       .  A
C276        O277   1.261       .  A
C276       C1750   1.484       .  S
O277       Cr284   1.977       .  S
O278       Cr284   2.034       .  S
O278        C279   1.274       .  A
C279        O280   1.261       .  A
C279       C1728   1.487       .  S
O280       Cr285   1.969       .  S
O281       Cr285   2.000       .  S
O281        C282   1.263       .  A
C282       C1827   1.479       .  S
Cr283       O286   1.769       .  S
Cr284       O286   1.772       .  S
Cr285       O286   1.763       .  S
O287       Cr305   1.971       .  S
O287        C295   1.261       .  A
O288       Cr305   2.000       .  S
O288        C289   1.264       .  A
C289        O290   1.264       .  A
C289       C2058   1.487       .  S
O290       Cr306   2.001       .  S
O291       Cr306   2.030       .  S
O291        C292   1.269       .  A
C292        O293   1.257       .  A
C292       C1651   1.487       .  S
O293       Cr307   1.967       .  S
O294       Cr307   2.011       .  S
O294        C295   1.268       .  A
C295       C2630   1.479       .  S
O296       Cr305   2.004       .  S
O296        C304   1.264       .  A
O297       Cr305   1.971       .  S
O297        C298   1.261       .  A
C298        O299   1.273       .  A
C298       C1684   1.488       .  S
O299       Cr306   2.032       .  S
O300       Cr306   1.977       .  S
O300        C301   1.263       .  A
C301        O302   1.268       .  A
C301       C1739   1.484       .  S
O302       Cr307   2.012       .  S
O303       Cr307   1.982       .  S
O303        C304   1.260       .  A
C304       C1794   1.481       .  S
Cr305       O308   1.765       .  S
Cr306       O308   1.775       .  S
Cr307       O308   1.771       .  S
O309       Cr327   1.995       .  S
O309        C317   1.265       .  A
O310       Cr327   1.993       .  S
O310        C311   1.260       .  A
C311        O312   1.263       .  A
C311       C1607   1.493       .  S
O312       Cr328   2.009       .  S
O313       Cr328   2.013       .  S
O313        C314   1.268       .  A
C314        O315   1.260       .  A
C314       C2355   1.485       .  S
O315       Cr329   1.972       .  S
O316       Cr329   1.992       .  S
O316        C317   1.265       .  A
C317       C2157   1.482       .  S
O318       Cr327   2.003       .  S
O318        C326   1.263       .  A
O319       Cr327   1.974       .  S
O319        C320   1.264       .  A
C320        O321   1.271       .  A
C320       C1629   1.482       .  S
O321       Cr328   2.014       .  S
O322       Cr328   2.001       .  S
O322        C323   1.264       .  A
C323        O324   1.262       .  A
C323       C1981   1.490       .  S
O324       Cr329   1.989       .  S
O325       Cr329   1.992       .  S
O325        C326   1.262       .  A
C326       C1717   1.487       .  S
Cr327       O330   1.774       .  S
Cr328       O330   1.782       .  S
Cr329       O330   1.771       .  S
O331       Cr349   1.965       .  S
O331        C339   1.260       .  A
O332       Cr349   2.001       .  S
O332        C333   1.264       .  A
C333        O334   1.261       .  A
C333       C2234   1.483       .  S
O334       Cr350   1.991       .  S
O335       Cr350   2.026       .  S
O335        C336   1.268       .  A
C336        O337   1.258       .  A
C336       C1596   1.491       .  S
O337       Cr351   1.972       .  S
O338       Cr351   2.016       .  S
O338        C339   1.269       .  A
C339       C2069   1.479       .  S
O340       Cr349   2.004       .  S
O340        C348   1.264       .  A
O341       Cr349   1.973       .  S
O341        C342   1.262       .  A
C342        O343   1.273       .  A
C342       C1926   1.487       .  S
O343       Cr350   2.029       .  S
O344       Cr350   1.968       .  S
O344        C345   1.260       .  A
C345        O346   1.269       .  A
C345       C1640   1.482       .  S
O346       Cr351   2.013       .  S
O347       Cr351   1.989       .  S
O347        C348   1.260       .  A
C348       C1673   1.488       .  S
Cr349       O352   1.766       .  S
Cr350       O352   1.775       .  S
Cr351       O352   1.772       .  S
O353       Cr371   2.014       .  S
O353        C361   1.270       .  A
O354       Cr371   1.975       .  S
O354        C355   1.259       .  A
C355        O356   1.268       .  A
C355       C1882   1.491       .  S
O356       Cr372   2.025       .  S
O357       Cr372   1.999       .  S
O357        C358   1.263       .  A
C358        O359   1.263       .  A
C358       C1552   1.482       .  S
O359       Cr373   2.002       .  S
O360       Cr373   1.967       .  S
O360        C361   1.261       .  A
C361       C1574   1.478       .  S
O362       Cr371   1.993       .  S
O362        C370   1.261       .  A
O363       Cr371   2.013       .  S
O363        C364   1.269       .  A
C364        O365   1.261       .  A
C364       C1519   1.483       .  S
O365       Cr372   1.972       .  S
O366       Cr372   2.026       .  S
O366        C367   1.273       .  A
C367        O368   1.263       .  A
C367       C1486   1.484       .  S
O368       Cr373   1.974       .  S
O369       Cr373   2.007       .  S
O369        C370   1.264       .  A
C370       C1508   1.491       .  S
Cr371       O374   1.771       .  S
Cr372       O374   1.773       .  S
Cr373       O374   1.767       .  S
O375       Cr393   1.992       .  S
O375        C383   1.264       .  A
O376       Cr393   1.973       .  S
O376        C377   1.260       .  A
C377        O378   1.268       .  A
C377       C1409   1.485       .  S
O378       Cr394   2.017       .  S
O379       Cr394   2.004       .  S
O379        C380   1.265       .  A
C380        O381   1.264       .  A
C380       C1948   1.493       .  S
O381       Cr395   1.999       .  S
O382       Cr395   1.995       .  S
O382        C383   1.264       .  A
C383       C1398   1.480       .  S
O384       Cr393   1.982       .  S
O384        C392   1.262       .  A
O385       Cr393   1.999       .  S
O385        C386   1.264       .  A
C386        O387   1.264       .  A
C386       C1442   1.492       .  S
O387       Cr394   2.001       .  S
O388       Cr394   2.010       .  S
O388        C389   1.268       .  A
C389        O390   1.262       .  A
C389       C1530   1.483       .  S
O390       Cr395   1.980       .  S
O391       Cr395   2.001       .  S
O391        C392   1.265       .  A
C392       C1464   1.479       .  S
Cr393       O396   1.771       .  S
Cr394       O396   1.777       .  S
Cr395       O396   1.772       .  S
O397       Cr415   2.009       .  S
O397        C405   1.268       .  A
O398       Cr415   1.969       .  S
O398        C399   1.257       .  A
C399        O400   1.268       .  A
C399       C1662   1.488       .  S
O400       Cr416   2.022       .  S
O401       Cr416   2.001       .  S
O401        C402   1.263       .  A
C402        O403   1.263       .  A
C402       C1354   1.487       .  S
O403       Cr417   1.994       .  S
O404       Cr417   1.971       .  S
O404        C405   1.262       .  A
C405       C1376   1.477       .  S
O406       Cr415   1.983       .  S
O406        C414   1.259       .  A
O407       Cr415   2.009       .  S
O407        C408   1.268       .  A
C408        O409   1.262       .  A
C408       C1321   1.484       .  S
O409       Cr416   1.976       .  S
O410       Cr416   2.026       .  S
O410        C411   1.272       .  A
C411        O412   1.264       .  A
C411       C1288   1.487       .  S
O412       Cr417   1.976       .  S
O413       Cr417   2.002       .  S
O413        C414   1.263       .  A
C414       C1299   1.484       .  S
Cr415       O418   1.773       .  S
Cr416       O418   1.775       .  S
Cr417       O418   1.767       .  S
O419       Cr437   1.968       .  S
O419        C427   1.261       .  A
O420       Cr437   2.002       .  S
O420        C421   1.264       .  A
C421        O422   1.263       .  A
C421       C1200   1.487       .  S
O422       Cr438   2.001       .  S
O423       Cr438   2.017       .  S
O423        C424   1.266       .  A
C424        O425   1.258       .  A
C424       C1706   1.488       .  S
O425       Cr439   1.978       .  S
O426       Cr439   2.012       .  S
O426        C427   1.269       .  A
C427       C1222   1.476       .  S
O428       Cr437   2.005       .  S
O428        C436   1.264       .  A
O429       Cr437   1.977       .  S
O429        C430   1.263       .  A
C430        O431   1.271       .  A
C430       C1233   1.485       .  S
O431       Cr438   2.021       .  S
O432       Cr438   1.975       .  S
O432        C433   1.263       .  A
C433        O434   1.270       .  A
C433       C1332   1.484       .  S
O434       Cr439   2.014       .  S
O435       Cr439   1.989       .  S
O435        C436   1.261       .  A
C436       C1255   1.489       .  S
Cr437       O440   1.767       .  S
Cr438       O440   1.774       .  S
Cr439       O440   1.772       .  S
O441       Cr459   2.011       .  S
O441        C449   1.268       .  A
O442       Cr459   1.969       .  S
O442        C443   1.258       .  A
C443        O444   1.268       .  A
C443       C1772   1.489       .  S
O444       Cr460   2.025       .  S
O445       Cr460   2.003       .  S
O445        C446   1.264       .  A
C446        O447   1.264       .  A
C446       C1178   1.491       .  S
O447       Cr461   1.999       .  S
O448       Cr461   1.972       .  S
O448        C449   1.261       .  A
C449       C1145   1.479       .  S
O450       Cr459   1.983       .  S
O450        C458   1.259       .  A
O451       Cr459   2.006       .  S
O451        C452   1.267       .  A
C452        O453   1.262       .  A
C452       C1123   1.481       .  S
O453       Cr460   1.977       .  S
O454       Cr460   2.030       .  S
O454        C455   1.273       .  A
C455        O456   1.263       .  A
C455       C1497   1.490       .  S
O456       Cr461   1.975       .  S
O457       Cr461   2.007       .  S
O457        C458   1.264       .  A
C458       C1277   1.485       .  S
Cr459       O462   1.775       .  S
Cr460       O462   1.778       .  S
Cr461       O462   1.768       .  S
O463       Cr481   1.967       .  S
O463        C471   1.260       .  A
O464       Cr481   1.999       .  S
O464        C465   1.264       .  A
C465        O466   1.264       .  A
C465       C1112   1.490       .  S
O466       Cr482   2.002       .  S
O467       Cr482   2.029       .  S
O467        C468   1.270       .  A
C468        O469   1.258       .  A
C468       C1816   1.488       .  S
O469       Cr483   1.965       .  S
O470       Cr483   2.014       .  S
O470        C471   1.268       .  A
C471       C1090   1.475       .  S
O472       Cr481   2.008       .  S
O472        C480   1.264       .  A
O473       Cr481   1.966       .  S
O473        C474   1.261       .  A
C474        O475   1.273       .  A
C474       C1453   1.481       .  S
O475       Cr482   2.029       .  S
O476       Cr482   1.980       .  S
O476        C477   1.262       .  A
C477        O478   1.267       .  A
C477       C1134   1.484       .  S
O478       Cr483   2.007       .  S
O479       Cr483   1.982       .  S
O479        C480   1.259       .  A
C480       C1244   1.485       .  S
Cr481       O484   1.764       .  S
Cr482       O484   1.776       .  S
Cr483       O484   1.769       .  S
O485       Cr503   2.016       .  S
O485        C493   1.270       .  A
O486       Cr503   1.969       .  S
O486        C487   1.258       .  A
C487        O488   1.270       .  A
C487       C1585   1.492       .  S
O488       Cr504   2.029       .  S
O489       Cr504   1.999       .  S
O489        C490   1.263       .  A
C490        O491   1.262       .  A
C490       C1046   1.486       .  S
O491       Cr505   1.997       .  S
O492       Cr505   1.964       .  S
O492        C493   1.261       .  A
C493       C1057   1.477       .  S
O494       Cr503   1.984       .  S
O494        C502   1.259       .  A
O495       Cr503   2.012       .  S
O495        C496   1.268       .  A
C496        O497   1.261       .  A
C496       C1013   1.486       .  S
O497       Cr504   1.975       .  S
O498       Cr504   2.030       .  S
O498        C499   1.274       .  A
C499        O500   1.262       .  A
C499       C1310   1.484       .  S
O500       Cr505   1.969       .  S
O501       Cr505   2.004       .  S
O501        C502   1.263       .  A
C502       C1475   1.483       .  S
Cr503       O506   1.772       .  S
Cr504       O506   1.773       .  S
Cr505       O506   1.768       .  S
O507       Cr525   1.968       .  S
O507        C515   1.261       .  A
O508       Cr525   2.001       .  S
O508        C509   1.264       .  A
C509        O510   1.265       .  A
C509        C980   1.493       .  S
O510       Cr526   2.005       .  S
O511       Cr526   2.026       .  S
O511        C512   1.269       .  A
C512        O513   1.258       .  A
C512       C1618   1.492       .  S
O513       Cr527   1.973       .  S
O514       Cr527   2.013       .  S
O514        C515   1.268       .  A
C515        C991   1.476       .  S
O516       Cr525   2.008       .  S
O516        C524   1.265       .  A
O517       Cr525   1.979       .  S
O517        C518   1.264       .  A
C518        O519   1.272       .  A
C518       C1266   1.489       .  S
O519       Cr526   2.024       .  S
O520       Cr526   1.981       .  S
O520        C521   1.263       .  A
C521        O522   1.268       .  A
C521       C1024   1.487       .  S
O522       Cr527   2.012       .  S
O523       Cr527   1.994       .  S
O523        C524   1.262       .  A
C524       C1431   1.493       .  S
Cr525       O528   1.768       .  S
Cr526       O528   1.778       .  S
Cr527       O528   1.778       .  S
O529       Cr547   1.973       .  S
O529        C537   1.262       .  A
O530       Cr547   1.999       .  S
O530        C531   1.262       .  A
C531        O532   1.263       .  A
C531       C1101   1.486       .  S
O532       Cr548   2.003       .  S
O533       Cr548   2.032       .  S
O533        C534   1.270       .  A
C534        O535   1.259       .  A
C534       C2267   1.494       .  S
O535       Cr549   1.972       .  S
O536       Cr549   2.014       .  S
O536        C537   1.269       .  A
C537       C1387   1.480       .  S
O538       Cr547   2.004       .  S
O538        C546   1.263       .  A
O539       Cr547   1.975       .  S
O539        C540   1.263       .  A
C540        O541   1.275       .  A
C540        C914   1.490       .  S
O541       Cr548   2.034       .  S
O542       Cr548   1.979       .  S
O542        C543   1.262       .  A
C543        O544   1.267       .  A
C543        C947   1.486       .  S
O544       Cr549   2.008       .  S
O545       Cr549   1.989       .  S
O545        C546   1.260       .  A
C546        C925   1.486       .  S
Cr547       O550   1.768       .  S
Cr548       O550   1.774       .  S
Cr549       O550   1.772       .  S
O551       Cr569   2.013       .  S
O551        C559   1.267       .  A
O552       Cr569   1.969       .  S
O552        C553   1.258       .  A
C553        O554   1.270       .  A
C553       C2179   1.492       .  S
O554       Cr570   2.034       .  S
O555       Cr570   1.997       .  S
O555        C556   1.264       .  A
C556        O557   1.266       .  A
C556       C1167   1.491       .  S
O557       Cr571   2.007       .  S
O558       Cr571   1.971       .  S
O558        C559   1.260       .  A
C559       C1563   1.477       .  S
O560       Cr569   1.981       .  S
O560        C568   1.260       .  A
O561       Cr569   2.015       .  S
O561        C562   1.268       .  A
C562        O563   1.262       .  A
C562        C958   1.485       .  S
O563       Cr570   1.977       .  S
O564       Cr570   2.031       .  S
O564        C565   1.273       .  A
C565        O566   1.262       .  A
C565        C859   1.491       .  S
O566       Cr571   1.976       .  S
O567       Cr571   2.015       .  S
O567        C568   1.267       .  A
C568        C881   1.488       .  S
Cr569       O572   1.773       .  S
Cr570       O572   1.774       .  S
Cr571       O572   1.767       .  S
O573       Cr591   1.966       .  S
O573        C581   1.261       .  A
O574       Cr591   2.001       .  S
O574        C575   1.262       .  A
C575        O576   1.262       .  A
C575       C1189   1.487       .  S
O576       Cr592   2.001       .  S
O577       Cr592   2.030       .  S
O577        C578   1.270       .  A
C578        O579   1.258       .  A
C578       C2476   1.492       .  S
O579       Cr593   1.972       .  S
O580       Cr593   2.015       .  S
O580        C581   1.270       .  A
C581       C1079   1.476       .  S
O582       Cr591   2.009       .  S
O582        C590   1.264       .  A
O583       Cr591   1.967       .  S
O583        C584   1.262       .  A
C584        O585   1.276       .  A
C584        C815   1.488       .  S
O585       Cr592   2.038       .  S
O586       Cr592   1.973       .  S
O586        C587   1.261       .  A
C587        O588   1.269       .  A
C587        C848   1.485       .  S
O588       Cr593   2.013       .  S
O589       Cr593   1.989       .  S
O589        C590   1.260       .  A
C590        C903   1.490       .  S
Cr591       O594   1.767       .  S
Cr592       O594   1.775       .  S
Cr593       O594   1.772       .  S
O595       Cr613   2.011       .  S
O595        C603   1.269       .  A
O596       Cr613   1.977       .  S
O596        C597   1.259       .  A
C597        O598   1.268       .  A
C597       C2388   1.494       .  S
O598       Cr614   2.027       .  S
O599       Cr614   2.002       .  S
O599        C600   1.264       .  A
C600        O601   1.263       .  A
C600       C1343   1.488       .  S
O601       Cr615   1.998       .  S
O602       Cr615   1.970       .  S
O602        C603   1.261       .  A
C603       C1156   1.478       .  S
O604       Cr613   1.994       .  S
O604        C612   1.261       .  A
O605       Cr613   2.012       .  S
O605        C606   1.269       .  A
C606        O607   1.262       .  A
C606        C837   1.484       .  S
O607       Cr614   1.976       .  S
O608       Cr614   2.027       .  S
O608        C609   1.272       .  A
C609        O610   1.263       .  A
C609        C793   1.486       .  S
O610       Cr615   1.976       .  S
O611       Cr615   2.003       .  S
O611        C612   1.263       .  A
C612        C870   1.491       .  S
Cr613       O616   1.773       .  S
Cr614       O616   1.775       .  S
Cr615       O616   1.767       .  S
O617       Cr635   1.964       .  S
O617        C625   1.261       .  A
O618       Cr635   1.999       .  S
O618        C619   1.263       .  A
C619        O620   1.265       .  A
C619        C969   1.491       .  S
O620       Cr636   2.010       .  S
O621       Cr636   2.027       .  S
O621        C622   1.269       .  A
C622        O623   1.258       .  A
C622       C2696   1.491       .  S
O623       Cr637   1.971       .  S
O624       Cr637   2.015       .  S
O624        C625   1.270       .  A
C625       C1211   1.477       .  S
O626       Cr635   2.004       .  S
O626        C634   1.263       .  A
O627       Cr635   1.968       .  S
O627        C628   1.261       .  A
C628        O629   1.273       .  A
C628        C749   1.483       .  S
O629       Cr636   2.027       .  S
O630       Cr636   1.980       .  S
O630        C631   1.263       .  A
C631        O632   1.268       .  A
C631        C771   1.485       .  S
O632       Cr637   2.008       .  S
O633       Cr637   1.987       .  S
O633        C634   1.259       .  A
C634        C826   1.486       .  S
Cr635       O638   1.766       .  S
Cr636       O638   1.775       .  S
Cr637       O638   1.772       .  S
O639       Cr657   2.011       .  S
O639        C647   1.267       .  A
O640       Cr657   1.966       .  S
O640        C641   1.257       .  A
C641        O642   1.268       .  A
C641       C2586   1.485       .  S
O642       Cr658   2.026       .  S
O643       Cr658   1.995       .  S
O643        C644   1.263       .  A
C644        O645   1.265       .  A
C644       C1035   1.486       .  S
O645       Cr659   2.000       .  S
O646       Cr659   1.967       .  S
O646        C647   1.259       .  A
C647       C1365   1.476       .  S
O648       Cr657   1.979       .  S
O648        C656   1.259       .  A
O649       Cr657   2.012       .  S
O649        C650   1.269       .  A
C650        O651   1.261       .  A
C650        C782   1.482       .  S
O651       Cr658   1.972       .  S
O652       Cr658   2.025       .  S
O652        C653   1.272       .  A
C653        O654   1.262       .  A
C653        C738   1.486       .  S
O654       Cr659   1.973       .  S
O655       Cr659   2.010       .  S
O655        C656   1.266       .  A
C656        C804   1.484       .  S
Cr657       O660   1.771       .  S
Cr658       O660   1.773       .  S
Cr659       O660   1.764       .  S
O661       Cr679   1.966       .  S
O661        C669   1.260       .  A
O662       Cr679   1.991       .  S
O662        C663   1.263       .  A
C663        O664   1.266       .  A
C663       C1420   1.484       .  S
O664       Cr680   2.003       .  S
O665       Cr680   2.025       .  S
O665        C666   1.268       .  A
C666        O667   1.257       .  A
C666       C2091   1.487       .  S
O667       Cr681   1.970       .  S
O668       Cr681   2.012       .  S
O668        C669   1.268       .  A
C669       C1002   1.478       .  S
O670       Cr679   2.000       .  S
O670        C678   1.263       .  A
O671       Cr679   1.978       .  S
O671        C672   1.263       .  A
C672        O673   1.271       .  A
C672        C936   1.486       .  S
O673       Cr680   2.022       .  S
O674       Cr680   1.980       .  S
O674        C675   1.263       .  A
C675        O676   1.268       .  A
C675        C705   1.482       .  S
O676       Cr681   2.008       .  S
O677       Cr681   1.982       .  S
O677        C678   1.259       .  A
C678        C760   1.482       .  S
Cr679       O682   1.764       .  S
Cr680       O682   1.773       .  S
Cr681       O682   1.771       .  S
O683       Cr701   1.983       .  S
O683        C691   1.263       .  A
O684       Cr701   1.993       .  S
O684        C685   1.260       .  A
C685        O686   1.264       .  A
C685       C2025   1.494       .  S
O686       Cr702   2.010       .  S
O687       Cr702   2.024       .  S
O687        C688   1.270       .  A
C688        O689   1.260       .  A
C688       C1541   1.489       .  S
O689       Cr703   1.970       .  S
O690       Cr703   1.993       .  S
O690        C691   1.265       .  A
C691       C1068   1.471       .  S
O692       Cr701   2.000       .  S
O692        C700   1.262       .  A
O693       Cr701   1.965       .  S
O693        C694   1.262       .  A
C694        O695   1.273       .  A
C694        C716   1.482       .  S
O695       Cr702   2.024       .  S
O696       Cr702   2.002       .  S
O696        C697   1.264       .  A
C697        O698   1.262       .  A
C697        C892   1.489       .  S
O698       Cr703   1.988       .  S
O699       Cr703   1.993       .  S
O699        C700   1.261       .  A
C700        C727   1.486       .  S
Cr701       O704   1.775       .  S
Cr702       O704   1.781       .  S
Cr703       O704   1.770       .  S
C705        C706   1.407       .  A
C705        C710   1.408       .  A
C706        C707   1.399       .  A
C706        H719   1.083       .  S
C707        C708   1.400       .  A
C707        H720   1.084       .  S
C708        C709   1.400       .  A
C708        C711   1.441       .  S
C709        C710   1.399       .  A
C709        H721   1.083       .  S
C710        H722   1.083       .  S
C711        C712   1.207   1_554  T
C712        C713   1.441       .  S
C713        C714   1.399       .  A
C713        C718   1.400       .  A
C714        C715   1.398       .  A
C714        H723   1.084       .  S
C715        C716   1.409       .  A
C715        H724   1.083       .  S
C716        C717   1.407       .  A
C717        C718   1.400       .  A
C717        H725   1.083       .  S
C718        H726   1.083       .  S
C727        C728   1.410       .  A
C727        C732   1.407       .  A
C728        C729   1.398       .  A
C728        H741   1.083       .  S
C729        C730   1.398       .  A
C729        H742   1.084       .  S
C730        C731   1.403       .  A
C730        C733   1.445       .  S
C731        C732   1.403       .  A
C731        H743   1.083       .  S
C732        H744   1.083       .  S
C733        C734   1.209       .  T
C734        C735   1.445       .  S
C735        C736   1.400       .  A
C735        C740   1.401       .  A
C736        C737   1.400   1_545  A
C736        H745   1.083       .  S
C737        C738   1.409       .  A
C737        H746   1.083       .  S
C738        C739   1.408   1_565  A
C739        C740   1.401       .  A
C739        H747   1.083   1_545  S
C740        H748   1.083       .  S
C749        C750   1.408   1_565  A
C749        C754   1.408       .  A
C750        C751   1.401       .  A
C750        H763   1.083       .  S
C751        C752   1.401       .  A
C751        H764   1.083       .  S
C752        C753   1.399       .  A
C752        C755   1.441       .  S
C753        C754   1.398   1_545  A
C753        H765   1.084       .  S
C754        H766   1.083       .  S
C755        C756   1.207       .  T
C756        C757   1.441       .  S
C757        C758   1.398       .  A
C757        C762   1.401       .  A
C758        C759   1.396       .  A
C758        H767   1.084       .  S
C759        C760   1.407       .  A
C759        H768   1.083       .  S
C760        C761   1.408       .  A
C761        C762   1.402       .  A
C761        H769   1.083       .  S
C762        H770   1.083       .  S
C771        C772   1.408       .  A
C771        C776   1.408       .  A
C772        C773   1.399       .  A
C772        H785   1.083       .  S
C773        C774   1.399       .  A
C773        H786   1.084       .  S
C774        C775   1.400       .  A
C774        C777   1.442       .  S
C775        C776   1.400       .  A
C775        H787   1.084       .  S
C776        H788   1.083       .  S
C777        C778   1.207   1_554  T
C778        C779   1.441       .  S
C779        C780   1.399       .  A
C779        C784   1.401       .  A
C780        C781   1.398       .  A
C780        H789   1.084       .  S
C781        C782   1.408       .  A
C781        H790   1.083       .  S
C782        C783   1.408       .  A
C783        C784   1.400       .  A
C783        H791   1.083       .  S
C784        H792   1.083       .  S
C793        C794   1.408   1_655  A
C793        C798   1.408       .  A
C794        C795   1.401       .  A
C794        H807   1.083       .  S
C795        C796   1.401       .  A
C795        H808   1.083       .  S
C796        C797   1.400       .  A
C796        C799   1.445       .  S
C797        C798   1.400   1_455  A
C797        H809   1.083       .  S
C798        H810   1.083       .  S
C799        C800   1.209       .  T
C800        C801   1.445       .  S
C801        C802   1.400       .  A
C801        C806   1.402       .  A
C802        C803   1.399       .  A
C802        H811   1.084       .  S
C803        C804   1.407       .  A
C803        H812   1.083       .  S
C804        C805   1.408       .  A
C805        C806   1.403       .  A
C805        H813   1.083       .  S
C806        H814   1.083       .  S
C815        C816   1.409       .  A
C815        C820   1.408   1_655  A
C816        C817   1.399   1_655  A
C816        H829   1.083       .  S
C817        C818   1.399       .  A
C817        H830   1.084       .  S
C818        C819   1.402       .  A
C818        C821   1.446       .  S
C819        C820   1.404       .  A
C819        H831   1.083       .  S
C820        H832   1.083       .  S
C821        C822   1.210       .  T
C822        C823   1.446       .  S
C823        C824   1.402       .  A
C823        C828   1.400       .  A
C824        C825   1.404       .  A
C824        H833   1.083       .  S
C825        C826   1.408       .  A
C825        H834   1.083       .  S
C826        C827   1.408       .  A
C827        C828   1.398       .  A
C827        H835   1.083       .  S
C828        H836   1.084       .  S
C837        C838   1.408       .  A
C837        C842   1.408       .  A
C838        C839   1.401       .  A
C838        H851   1.083       .  S
C839        C840   1.401       .  A
C839        H852   1.083       .  S
C840        C841   1.400       .  A
C840        C843   1.443       .  S
C841        C842   1.399       .  A
C841        H853   1.084       .  S
C842        H854   1.083       .  S
C843        C844   1.208   1_556  T
C844        C845   1.443       .  S
C845        C846   1.400       .  A
C845        C850   1.401       .  A
C846        C847   1.399       .  A
C846        H855   1.084       .  S
C847        C848   1.408       .  A
C847        H856   1.083       .  S
C848        C849   1.408       .  A
C849        C850   1.401       .  A
C849        H857   1.083       .  S
C850        H858   1.083       .  S
C859        C860   1.410       .  A
C859        C864   1.409   1_545  A
C860        C861   1.402   1_545  A
C860        H873   1.083       .  S
C861        C862   1.401       .  A
C861        H874   1.083       .  S
C862        C863   1.402       .  A
C862        C865   1.451       .  S
C863        C864   1.404       .  A
C863        H875   1.083       .  S
C864        H876   1.083       .  S
C865        C866   1.213       .  T
C866        C867   1.451       .  S
C867        C868   1.404       .  A
C867        C872   1.399       .  A
C868        C869   1.407       .  A
C868        H877   1.083       .  S
C869        C870   1.409       .  A
C869        H878   1.083       .  S
C870        C871   1.409       .  A
C871        C872   1.399       .  A
C871        H879   1.083       .  S
C872        H880   1.084       .  S
C881        C882   1.407       .  A
C881        C886   1.409       .  A
C882        C883   1.400       .  A
C882        H895   1.083       .  S
C883        C884   1.401       .  A
C883        H896   1.084       .  S
C884        C885   1.402       .  A
C884        C887   1.449       .  S
C885        C886   1.404       .  A
C885        H897   1.083       .  S
C886        H898   1.083       .  S
C887        C888   1.211       .  T
C888        C889   1.448       .  S
C889        C890   1.405       .  A
C889        C894   1.397       .  A
C890        C891   1.408   1_655  A
C890        H899   1.083       .  S
C891        C892   1.409       .  A
C891        H900   1.083       .  S
C892        C893   1.409       .  A
C893        C894   1.396   1_455  A
C893        H901   1.083       .  S
C894        H902   1.084       .  S
C903        C904   1.408       .  A
C903        C908   1.409       .  A
C904        C905   1.404       .  A
C904        H917   1.083       .  S
C905        C906   1.403       .  A
C905        H918   1.083       .  S
C906        C907   1.400       .  A
C906        C909   1.450       .  S
C907        C908   1.400       .  A
C907        H919   1.084       .  S
C908        H920   1.083       .  S
C909        C910   1.212       .  T
C910        C911   1.450       .  S
C911        C912   1.401       .  A
C911        C916   1.402       .  A
C912        C913   1.402   1_565  A
C912        H921   1.083       .  S
C913        C914   1.410       .  A
C913        H922   1.083       .  S
C914        C915   1.408   1_545  A
C915        C916   1.403       .  A
C915        H923   1.083       .  S
C916        H924   1.083       .  S
C925        C926   1.408       .  A
C925        C930   1.408       .  A
C926        C927   1.397       .  A
C926        H939   1.083       .  S
C927        C928   1.399       .  A
C927        H940   1.084       .  S
C928        C929   1.402       .  A
C928        C931   1.445       .  S
C929        C930   1.404       .  A
C929        H941   1.083       .  S
C930        H942   1.083       .  S
C931        C932   1.209       .  T
C932        C933   1.445       .  S
C933        C934   1.400       .  A
C933        C938   1.401       .  A
C934        C935   1.401       .  A
C934        H943   1.083       .  S
C935        C936   1.409   1_655  A
C935        H944   1.083       .  S
C936        C937   1.408       .  A
C937        C938   1.400   1_455  A
C937        H945   1.083       .  S
C938        H946   1.083       .  S
C947        C948   1.409       .  A
C947        C952   1.408       .  A
C948        C949   1.401       .  A
C948        H961   1.083       .  S
C949        C950   1.400       .  A
C949        H962   1.083       .  S
C950        C951   1.400       .  A
C950        C953   1.444       .  S
C951        C952   1.400       .  A
C951        H963   1.083       .  S
C952        H964   1.083       .  S
C953        C954   1.209   1_554  T
C954        C955   1.444       .  S
C955        C956   1.400       .  A
C955        C960   1.401       .  A
C956        C957   1.399       .  A
C956        H965   1.084       .  S
C957        C958   1.408       .  A
C957        H966   1.083       .  S
C958        C959   1.408       .  A
C959        C960   1.401       .  A
C959        H967   1.083       .  S
C960        H968   1.083       .  S
C969        C970   1.409       .  A
C969        C974   1.409       .  A
C970        C971   1.395       .  A
C970        H983   1.083       .  S
C971        C972   1.397       .  A
C971        H984   1.084       .  S
C972        C973   1.407       .  A
C972        C975   1.452       .  S
C973        C974   1.412       .  A
C973        H985   1.083       .  S
C974        H986   1.083       .  S
C975        C976   1.214       .  T
C976        C977   1.453   1_565  S
C977        C978   1.406       .  A
C977        C982   1.398       .  A
C978        C979   1.411       .  A
C978        H987   1.083       .  S
C979        C980   1.410       .  A
C979        H988   1.083       .  S
C980        C981   1.409       .  A
C981        C982   1.396       .  A
C981        H989   1.083       .  S
C982        H990   1.084       .  S
C991        C992   1.406       .  A
C991        C996   1.407       .  A
C992        C993   1.394       .  A
C992       H1005   1.083       .  S
C993        C994   1.398       .  A
C993       H1006   1.084       .  S
C994        C995   1.400       .  A
C994        C997   1.435       .  S
C995        C996   1.399       .  A
C995       H1007   1.083       .  S
C996       H1008   1.083       .  S
C997        C998   1.203       .  T
C998        C999   1.435       .  S
C999       C1000   1.400       .  A
C999       C1004   1.397       .  A
C1000      C1001   1.399       .  A
C1000      H1009   1.083       .  S
C1001      C1002   1.407       .  A
C1001      H1010   1.083       .  S
C1002      C1003   1.407       .  A
C1003      C1004   1.394       .  A
C1003      H1011   1.083       .  S
C1004      H1012   1.084       .  S
C1013      C1014   1.408       .  A
C1013      C1018   1.409       .  A
C1014      C1015   1.402       .  A
C1014      H1027   1.083       .  S
C1015      C1016   1.401       .  A
C1015      H1028   1.083       .  S
C1016      C1017   1.400       .  A
C1016      C1019   1.445       .  S
C1017      C1018   1.399       .  A
C1017      H1029   1.084       .  S
C1018      H1030   1.083       .  S
C1019      C1020   1.209       .  T
C1020      C1021   1.445       .  S
C1021      C1022   1.401       .  A
C1021      C1026   1.400       .  A
C1022      C1023   1.401       .  A
C1022      H1031   1.083       .  S
C1023      C1024   1.408       .  A
C1023      H1032   1.083       .  S
C1024      C1025   1.409       .  A
C1025      C1026   1.401       .  A
C1025      H1033   1.083       .  S
C1026      H1034   1.083       .  S
C1035      C1036   1.409       .  A
C1035      C1040   1.407       .  A
C1036      C1037   1.407       .  A
C1036      H1049   1.083       .  S
C1037      C1038   1.404       .  A
C1037      H1050   1.083       .  S
C1038      C1039   1.397       .  A
C1038      C1041   1.444       .  S
C1039      C1040   1.392       .  A
C1039      H1051   1.084       .  S
C1040      H1052   1.083       .  S
C1041      C1042   1.209   1_565  T
C1042      C1043   1.444       .  S
C1043      C1044   1.397       .  A
C1043      C1048   1.404       .  A
C1044      C1045   1.393       .  A
C1044      H1053   1.084   1_545  S
C1045      C1046   1.408       .  A
C1045      H1054   1.083       .  S
C1046      C1047   1.408       .  A
C1047      C1048   1.407       .  A
C1047      H1055   1.083       .  S
C1048      H1056   1.083       .  S
C1057      C1058   1.407       .  A
C1057      C1062   1.407       .  A
C1058      C1059   1.399       .  A
C1058      H1071   1.083       .  S
C1059      C1060   1.399       .  A
C1059      H1072   1.083       .  S
C1060      C1061   1.398       .  A
C1060      C1063   1.435       .  S
C1061      C1062   1.394       .  A
C1061      H1073   1.084       .  S
C1062      H1074   1.083       .  S
C1063      C1064   1.203       .  T
C1064      C1065   1.434       .  S
C1065      C1066   1.397       .  A
C1065      C1070   1.401       .  A
C1066      C1067   1.391       .  A
C1066      H1075   1.084       .  S
C1067      C1068   1.405       .  A
C1067      H1076   1.084       .  S
C1068      C1069   1.405       .  A
C1069      C1070   1.402       .  A
C1069      H1077   1.083       .  S
C1070      H1078   1.083       .  S
C1079      C1080   1.406       .  A
C1079      C1084   1.407       .  A
C1080      C1081   1.397       .  A
C1080      H1093   1.083       .  S
C1081      C1082   1.399       .  A
C1081      H1094   1.083       .  S
C1082      C1083   1.398       .  A
C1082      C1085   1.434       .  S
C1083      C1084   1.395       .  A
C1083      H1095   1.084       .  S
C1084      H1096   1.083       .  S
C1085      C1086   1.203       .  T
C1086      C1087   1.434       .  S
C1087      C1088   1.399       .  A
C1087      C1092   1.398       .  A
C1088      C1089   1.398       .  A
C1088      H1097   1.083       .  S
C1089      C1090   1.407       .  A
C1089      H1098   1.083       .  S
C1090      C1091   1.406       .  A
C1091      C1092   1.395       .  A
C1091      H1099   1.083       .  S
C1092      H1100   1.084       .  S
C1101      C1102   1.408       .  A
C1101      C1106   1.408       .  A
C1102      C1103   1.408       .  A
C1102      H1115   1.083       .  S
C1103      C1104   1.405       .  A
C1103      H1116   1.083       .  S
C1104      C1105   1.398       .  A
C1104      C1107   1.448       .  S
C1105      C1106   1.395       .  A
C1105      H1117   1.084   1_545  S
C1106      H1118   1.083       .  S
C1107      C1108   1.211   1_545  T
C1108      C1109   1.448       .  S
C1109      C1110   1.397       .  A
C1109      C1114   1.405       .  A
C1110      C1111   1.394       .  A
C1110      H1119   1.084       .  S
C1111      C1112   1.409       .  A
C1111      H1120   1.083       .  S
C1112      C1113   1.409       .  A
C1113      C1114   1.410       .  A
C1113      H1121   1.083       .  S
C1114      H1122   1.083       .  S
C1123      C1124   1.406       .  A
C1123      C1128   1.407       .  A
C1124      C1125   1.399       .  A
C1124      H1137   1.083       .  S
C1125      C1126   1.400       .  A
C1125      H1138   1.083       .  S
C1126      C1127   1.401       .  A
C1126      C1129   1.443       .  S
C1127      C1128   1.400       .  A
C1127      H1139   1.083       .  S
C1128      H1140   1.083       .  S
C1129      C1130   1.208       .  T
C1130      C1131   1.443       .  S
C1131      C1132   1.400       .  A
C1131      C1136   1.401       .  A
C1132      C1133   1.399       .  A
C1132      H1141   1.083       .  S
C1133      C1134   1.408       .  A
C1133      H1142   1.083       .  S
C1134      C1135   1.408       .  A
C1135      C1136   1.400       .  A
C1135      H1143   1.083       .  S
C1136      H1144   1.083       .  S
C1145      C1146   1.406       .  A
C1145      C1150   1.408       .  A
C1146      C1147   1.395       .  A
C1146      H1159   1.083       .  S
C1147      C1148   1.398       .  A
C1147      H1160   1.084       .  S
C1148      C1149   1.399       .  A
C1148      C1151   1.436       .  S
C1149      C1150   1.399       .  A
C1149      H1161   1.083       .  S
C1150      H1162   1.083       .  S
C1151      C1152   1.204       .  T
C1152      C1153   1.436       .  S
C1153      C1154   1.399       .  A
C1153      C1158   1.399       .  A
C1154      C1155   1.396       .  A
C1154      H1163   1.084       .  S
C1155      C1156   1.407       .  A
C1155      H1164   1.083       .  S
C1156      C1157   1.407       .  A
C1157      C1158   1.397       .  A
C1157      H1165   1.083       .  S
C1158      H1166   1.083       .  S
C1167      C1168   1.408       .  A
C1167      C1172   1.410       .  A
C1168      C1169   1.395       .  A
C1168      H1181   1.083       .  S
C1169      C1170   1.398       .  A
C1169      H1182   1.084       .  S
C1170      C1171   1.405       .  A
C1170      C1173   1.449       .  S
C1171      C1172   1.409       .  A
C1171      H1183   1.083       .  S
C1172      H1184   1.083       .  S
C1173      C1174   1.212   1_545  T
C1174      C1175   1.449       .  S
C1175      C1176   1.406       .  A
C1175      C1180   1.397       .  A
C1176      C1177   1.411       .  A
C1176      H1185   1.083       .  S
C1177      C1178   1.410       .  A
C1177      H1186   1.083       .  S
C1178      C1179   1.409       .  A
C1179      C1180   1.394       .  A
C1179      H1187   1.083       .  S
C1180      H1188   1.084       .  S
C1189      C1190   1.407       .  A
C1189      C1194   1.409       .  A
C1190      C1191   1.394       .  A
C1190      H1203   1.083       .  S
C1191      C1192   1.397       .  A
C1191      H1204   1.084   1_655  S
C1192      C1193   1.405       .  A
C1192      C1195   1.447       .  S
C1193      C1194   1.409       .  A
C1193      H1205   1.083       .  S
C1194      H1206   1.083       .  S
C1195      C1196   1.211   1_655  T
C1196      C1197   1.447       .  S
C1197      C1198   1.405       .  A
C1197      C1202   1.398       .  A
C1198      C1199   1.408       .  A
C1198      H1207   1.083       .  S
C1199      C1200   1.409       .  A
C1199      H1208   1.083       .  S
C1200      C1201   1.408       .  A
C1201      C1202   1.394       .  A
C1201      H1209   1.083       .  S
C1202      H1210   1.084   1_455  S
C1211      C1212   1.407       .  A
C1211      C1216   1.407       .  A
C1212      C1213   1.394       .  A
C1212      H1225   1.083       .  S
C1213      C1214   1.398       .  A
C1213      H1226   1.084       .  S
C1214      C1215   1.399       .  A
C1214      C1217   1.435       .  S
C1215      C1216   1.399       .  A
C1215      H1227   1.083       .  S
C1216      H1228   1.083       .  S
C1217      C1218   1.203       .  T
C1218      C1219   1.435       .  S
C1219      C1220   1.399       .  A
C1219      C1224   1.398       .  A
C1220      C1221   1.397       .  A
C1220      H1229   1.083       .  S
C1221      C1222   1.406       .  A
C1221      H1230   1.083       .  S
C1222      C1223   1.407       .  A
C1223      C1224   1.396       .  A
C1223      H1231   1.083       .  S
C1224      H1232   1.084       .  S
C1233      C1234   1.409   1_455  A
C1233      C1238   1.407       .  A
C1234      C1235   1.401       .  A
C1234      H1247   1.083       .  S
C1235      C1236   1.400       .  A
C1235      H1248   1.083       .  S
C1236      C1237   1.400       .  A
C1236      C1239   1.444       .  S
C1237      C1238   1.399   1_655  A
C1237      H1249   1.084       .  S
C1238      H1250   1.083       .  S
C1239      C1240   1.208       .  T
C1240      C1241   1.444       .  S
C1241      C1242   1.399       .  A
C1241      C1246   1.402       .  A
C1242      C1243   1.397       .  A
C1242      H1251   1.084       .  S
C1243      C1244   1.408       .  A
C1243      H1252   1.083       .  S
C1244      C1245   1.409       .  A
C1245      C1246   1.403       .  A
C1245      H1253   1.083       .  S
C1246      H1254   1.083       .  S
C1255      C1256   1.409       .  A
C1255      C1260   1.409       .  A
C1256      C1257   1.405       .  A
C1256      H1269   1.083       .  S
C1257      C1258   1.403       .  A
C1257      H1270   1.083       .  S
C1258      C1259   1.399       .  A
C1258      C1261   1.448       .  S
C1259      C1260   1.398       .  A
C1259      H1271   1.084       .  S
C1260      H1272   1.083       .  S
C1261      C1262   1.211       .  T
C1262      C1263   1.448       .  S
C1263      C1264   1.401       .  A
C1263      C1268   1.401       .  A
C1264      C1265   1.401   1_565  A
C1264      H1273   1.083       .  S
C1265      C1266   1.408       .  A
C1265      H1274   1.083       .  S
C1266      C1267   1.409   1_545  A
C1267      C1268   1.402       .  A
C1267      H1275   1.083       .  S
C1268      H1276   1.083       .  S
C1277      C1278   1.407       .  A
C1277      C1282   1.409       .  A
C1278      C1279   1.398       .  A
C1278      H1291   1.083       .  S
C1279      C1280   1.400       .  A
C1279      H1292   1.084       .  S
C1280      C1281   1.402       .  A
C1280      C1283   1.446       .  S
C1281      C1282   1.404       .  A
C1281      H1293   1.083       .  S
C1282      H1294   1.083       .  S
C1283      C1284   1.210       .  T
C1284      C1285   1.446       .  S
C1285      C1286   1.402       .  A
C1285      C1290   1.400       .  A
C1286      C1287   1.402       .  A
C1286      H1295   1.083       .  S
C1287      C1288   1.409   1_655  A
C1287      H1296   1.083       .  S
C1288      C1289   1.408       .  A
C1289      C1290   1.399   1_455  A
C1289      H1297   1.083       .  S
C1290      H1298   1.084       .  S
C1299      C1300   1.408       .  A
C1299      C1304   1.408       .  A
C1300      C1301   1.402       .  A
C1300      H1313   1.083       .  S
C1301      C1302   1.401       .  A
C1301      H1314   1.083       .  S
C1302      C1303   1.399       .  A
C1302      C1305   1.443       .  S
C1303      C1304   1.398       .  A
C1303      H1315   1.084       .  S
C1304      H1316   1.083       .  S
C1305      C1306   1.208       .  T
C1306      C1307   1.443       .  S
C1307      C1308   1.400       .  A
C1307      C1312   1.401       .  A
C1308      C1309   1.399   1_565  A
C1308      H1317   1.084       .  S
C1309      C1310   1.409       .  A
C1309      H1318   1.083       .  S
C1310      C1311   1.407   1_545  A
C1311      C1312   1.401       .  A
C1311      H1319   1.083       .  S
C1312      H1320   1.083       .  S
C1321      C1322   1.408       .  A
C1321      C1326   1.408       .  A
C1322      C1323   1.398       .  A
C1322      H1335   1.083       .  S
C1323      C1324   1.399       .  A
C1323      H1336   1.084       .  S
C1324      C1325   1.400       .  A
C1324      C1327   1.442       .  S
C1325      C1326   1.400       .  A
C1325      H1337   1.083       .  S
C1326      H1338   1.083       .  S
C1327      C1328   1.207       .  T
C1328      C1329   1.442       .  S
C1329      C1330   1.400       .  A
C1329      C1334   1.400       .  A
C1330      C1331   1.400       .  A
C1330      H1339   1.083       .  S
C1331      C1332   1.408       .  A
C1331      H1340   1.083       .  S
C1332      C1333   1.408       .  A
C1333      C1334   1.399       .  A
C1333      H1341   1.083       .  S
C1334      H1342   1.084       .  S
C1343      C1344   1.409       .  A
C1343      C1348   1.409       .  A
C1344      C1345   1.393       .  A
C1344      H1357   1.083       .  S
C1345      C1346   1.397       .  A
C1345      H1358   1.084   1_655  S
C1346      C1347   1.404       .  A
C1346      C1349   1.446   1_655  S
C1347      C1348   1.408       .  A
C1347      H1359   1.083       .  S
C1348      H1360   1.083       .  S
C1349      C1350   1.210       .  T
C1350      C1351   1.445       .  S
C1351      C1352   1.405       .  A
C1351      C1356   1.397       .  A
C1352      C1353   1.409       .  A
C1352      H1361   1.083       .  S
C1353      C1354   1.409       .  A
C1353      H1362   1.083       .  S
C1354      C1355   1.408       .  A
C1355      C1356   1.392       .  A
C1355      H1363   1.083       .  S
C1356      H1364   1.084       .  S
C1365      C1366   1.407       .  A
C1365      C1370   1.407       .  A
C1366      C1367   1.398       .  A
C1366      H1379   1.083       .  S
C1367      C1368   1.399       .  A
C1367      H1380   1.083       .  S
C1368      C1369   1.398       .  A
C1368      C1371   1.434       .  S
C1369      C1370   1.394       .  A
C1369      H1381   1.084       .  S
C1370      H1382   1.083       .  S
C1371      C1372   1.203       .  T
C1372      C1373   1.435       .  S
C1373      C1374   1.398       .  A
C1373      C1378   1.399       .  A
C1374      C1375   1.397       .  A
C1374      H1383   1.083       .  S
C1375      C1376   1.408       .  A
C1375      H1384   1.083       .  S
C1376      C1377   1.406       .  A
C1377      C1378   1.395       .  A
C1377      H1385   1.083       .  S
C1378      H1386   1.084       .  S
C1387      C1388   1.406       .  A
C1387      C1392   1.408       .  A
C1388      C1389   1.396       .  A
C1388      H1401   1.083       .  S
C1389      C1390   1.399       .  A
C1389      H1402   1.084       .  S
C1390      C1391   1.400       .  A
C1390      C1393   1.439       .  S
C1391      C1392   1.401       .  A
C1391      H1403   1.083       .  S
C1392      H1404   1.083       .  S
C1393      C1394   1.205       .  T
C1394      C1395   1.438       .  S
C1395      C1396   1.403       .  A
C1395      C1400   1.396       .  A
C1396      C1397   1.405       .  A
C1396      H1405   1.083       .  S
C1397      C1398   1.407       .  A
C1397      H1406   1.083       .  S
C1398      C1399   1.407       .  A
C1399      C1400   1.390       .  A
C1399      H1407   1.083       .  S
C1400      H1408   1.084       .  S
C1409      C1410   1.409       .  A
C1409      C1414   1.408       .  A
C1410      C1411   1.403       .  A
C1410      H1423   1.083       .  S
C1411      C1412   1.401       .  A
C1411      H1424   1.083       .  S
C1412      C1413   1.400       .  A
C1412      C1415   1.444       .  S
C1413      C1414   1.397       .  A
C1413      H1425   1.084       .  S
C1414      H1426   1.083       .  S
C1415      C1416   1.209   1_655  T
C1416      C1417   1.444       .  S
C1417      C1418   1.396       .  A
C1417      C1422   1.405       .  A
C1418      C1419   1.392       .  A
C1418      H1427   1.084       .  S
C1419      C1420   1.409       .  A
C1419      H1428   1.083       .  S
C1420      C1421   1.407       .  A
C1421      C1422   1.408       .  A
C1421      H1429   1.083       .  S
C1422      H1430   1.083       .  S
C1431      C1432   1.410       .  A
C1431      C1436   1.409       .  A
C1432      C1433   1.409       .  A
C1432      H1445   1.083       .  S
C1433      C1434   1.405       .  A
C1433      H1446   1.083       .  S
C1434      C1435   1.399       .  A
C1434      C1437   1.451       .  S
C1435      C1436   1.398       .  A
C1435      H1447   1.084       .  S
C1436      H1448   1.083       .  S
C1437      C1438   1.213       .  T
C1438      C1439   1.451       .  S
C1439      C1440   1.399       .  A
C1439      C1444   1.404       .  A
C1440      C1441   1.398   1_455  A
C1440      H1449   1.084       .  S
C1441      C1442   1.409       .  A
C1441      H1450   1.083       .  S
C1442      C1443   1.409       .  A
C1443      C1444   1.408   1_655  A
C1443      H1451   1.083       .  S
C1444      H1452   1.083       .  S
C1453      C1454   1.408       .  A
C1453      C1458   1.407   1_565  A
C1454      C1455   1.397   1_565  A
C1454      H1467   1.083       .  S
C1455      C1456   1.398       .  A
C1455      H1468   1.084       .  S
C1456      C1457   1.401       .  A
C1456      C1459   1.440       .  S
C1457      C1458   1.400       .  A
C1457      H1469   1.083       .  S
C1458      H1470   1.083       .  S
C1459      C1460   1.206       .  T
C1460      C1461   1.440       .  S
C1461      C1462   1.397       .  A
C1461      C1466   1.402       .  A
C1462      C1463   1.395       .  A
C1462      H1471   1.084       .  S
C1463      C1464   1.407       .  A
C1463      H1472   1.083       .  S
C1464      C1465   1.407       .  A
C1465      C1466   1.402       .  A
C1465      H1473   1.083       .  S
C1466      H1474   1.083       .  S
C1475      C1476   1.408       .  A
C1475      C1480   1.408       .  A
C1476      C1477   1.401       .  A
C1476      H1489   1.083       .  S
C1477      C1478   1.401       .  A
C1477      H1490   1.083       .  S
C1478      C1479   1.400       .  A
C1478      C1481   1.443       .  S
C1479      C1480   1.398       .  A
C1479      H1491   1.084       .  S
C1480      H1492   1.083       .  S
C1481      C1482   1.208       .  T
C1482      C1483   1.443       .  S
C1483      C1484   1.400       .  A
C1483      C1488   1.400       .  A
C1484      C1485   1.400   1_455  A
C1484      H1493   1.083       .  S
C1485      C1486   1.408       .  A
C1485      H1494   1.083       .  S
C1486      C1487   1.408   1_655  A
C1487      C1488   1.400       .  A
C1487      H1495   1.083       .  S
C1488      H1496   1.083       .  S
C1497      C1498   1.409       .  A
C1497      C1502   1.409   1_565  A
C1498      C1499   1.401   1_565  A
C1498      H1511   1.083       .  S
C1499      C1500   1.401       .  A
C1499      H1512   1.083       .  S
C1500      C1501   1.402       .  A
C1500      C1503   1.450       .  S
C1501      C1502   1.404       .  A
C1501      H1513   1.083       .  S
C1502      H1514   1.083   1_545  S
C1503      C1504   1.212       .  T
C1504      C1505   1.450       .  S
C1505      C1506   1.404       .  A
C1505      C1510   1.399       .  A
C1506      C1507   1.407       .  A
C1506      H1515   1.083       .  S
C1507      C1508   1.409       .  A
C1507      H1516   1.083       .  S
C1508      C1509   1.409       .  A
C1509      C1510   1.399       .  A
C1509      H1517   1.083       .  S
C1510      H1518   1.084       .  S
C1519      C1520   1.409       .  A
C1519      C1524   1.407       .  A
C1520      C1521   1.399       .  A
C1520      H1533   1.083       .  S
C1521      C1522   1.400       .  A
C1521      H1534   1.084       .  S
C1522      C1523   1.400       .  A
C1522      C1525   1.441       .  S
C1523      C1524   1.399       .  A
C1523      H1535   1.083       .  S
C1524      H1536   1.083       .  S
C1525      C1526   1.207       .  T
C1526      C1527   1.441       .  S
C1527      C1528   1.401       .  A
C1527      C1532   1.399       .  A
C1528      C1529   1.400       .  A
C1528      H1537   1.083       .  S
C1529      C1530   1.407       .  A
C1529      H1538   1.083       .  S
C1530      C1531   1.408       .  A
C1531      C1532   1.398       .  A
C1531      H1539   1.083       .  S
C1532      H1540   1.083       .  S
C1541      C1542   1.408       .  A
C1541      C1546   1.409       .  A
C1542      C1543   1.397       .  A
C1542      H1555   1.083       .  S
C1543      C1544   1.399       .  A
C1543      H1556   1.084       .  S
C1544      C1545   1.403       .  A
C1544      C1547   1.446       .  S
C1545      C1546   1.406       .  A
C1545      H1557   1.083       .  S
C1546      H1558   1.083       .  S
C1547      C1548   1.210   1_455  T
C1548      C1549   1.446       .  S
C1549      C1550   1.404       .  A
C1549      C1554   1.398       .  A
C1550      C1551   1.407       .  A
C1550      H1559   1.083       .  S
C1551      C1552   1.407       .  A
C1551      H1560   1.083       .  S
C1552      C1553   1.406       .  A
C1553      C1554   1.395       .  A
C1553      H1561   1.083       .  S
C1554      H1562   1.084   1_655  S
C1563      C1564   1.406       .  A
C1563      C1568   1.407       .  A
C1564      C1565   1.396       .  A
C1564      H1577   1.083       .  S
C1565      C1566   1.398       .  A
C1565      H1578   1.084       .  S
C1566      C1567   1.399       .  A
C1566      C1569   1.436       .  S
C1567      C1568   1.399       .  A
C1567      H1579   1.083       .  S
C1568      H1580   1.083       .  S
C1569      C1570   1.204       .  T
C1570      C1571   1.436       .  S
C1571      C1572   1.400       .  A
C1571      C1576   1.398       .  A
C1572      C1573   1.399       .  A
C1572      H1581   1.083       .  S
C1573      C1574   1.407       .  A
C1573      H1582   1.083       .  S
C1574      C1575   1.407       .  A
C1575      C1576   1.395       .  A
C1575      H1583   1.083       .  S
C1576      H1584   1.084       .  S
C1585      C1586   1.409       .  A
C1585      C1590   1.410       .  A
C1586      C1587   1.407       .  A
C1586      H1599   1.083       .  S
C1587      C1588   1.404       .  A
C1587      H1600   1.083       .  S
C1588      C1589   1.399       .  A
C1588      C1591   1.451       .  S
C1589      C1590   1.399       .  A
C1589      H1601   1.084       .  S
C1590      H1602   1.083       .  S
C1591      C1592   1.213       .  T
C1592      C1593   1.451       .  S
C1593      C1594   1.399       .  A
C1593      C1598   1.404       .  A
C1594      C1595   1.399       .  A
C1594      H1603   1.084       .  S
C1595      C1596   1.409       .  A
C1595      H1604   1.083       .  S
C1596      C1597   1.409       .  A
C1597      C1598   1.407       .  A
C1597      H1605   1.083       .  S
C1598      H1606   1.083       .  S
C1607      C1608   1.409       .  A
C1607      C1612   1.410       .  A
C1608      C1609   1.410       .  A
C1608      H1621   1.083       .  S
C1609      C1610   1.406       .  A
C1609      H1622   1.083       .  S
C1610      C1611   1.397       .  A
C1610      C1613   1.451       .  S
C1611      C1612   1.396       .  A
C1611      H1623   1.084       .  S
C1612      H1624   1.083       .  S
C1613      C1614   1.213       .  T
C1614      C1615   1.451       .  S
C1615      C1616   1.400       .  A
C1615      C1620   1.404       .  A
C1616      C1617   1.399       .  A
C1616      H1625   1.084       .  S
C1617      C1618   1.409       .  A
C1617      H1626   1.083       .  S
C1618      C1619   1.409       .  A
C1619      C1620   1.407       .  A
C1619      H1627   1.083       .  S
C1620      H1628   1.083       .  S
C1629      C1630   1.408       .  A
C1629      C1634   1.407       .  A
C1630      C1631   1.400       .  A
C1630      H1643   1.083       .  S
C1631      C1632   1.400       .  A
C1631      H1644   1.083       .  S
C1632      C1633   1.399       .  A
C1632      C1635   1.439       .  S
C1633      C1634   1.397       .  A
C1633      H1645   1.084       .  S
C1634      H1646   1.083       .  S
C1635      C1636   1.206       .  T
C1636      C1637   1.439       .  S
C1637      C1638   1.400       .  A
C1637      C1642   1.399       .  A
C1638      C1639   1.399       .  A
C1638      H1647   1.084       .  S
C1639      C1640   1.407       .  A
C1639      H1648   1.083       .  S
C1640      C1641   1.409       .  A
C1641      C1642   1.398       .  A
C1641      H1649   1.083       .  S
C1642      H1650   1.084       .  S
C1651      C1652   1.408       .  A
C1651      C1656   1.409       .  A
C1652      C1653   1.406       .  A
C1652      H1665   1.083       .  S
C1653      C1654   1.403       .  A
C1653      H1666   1.083       .  S
C1654      C1655   1.399       .  A
C1654      C1657   1.447       .  S
C1655      C1656   1.397       .  A
C1655      H1667   1.084       .  S
C1656      H1668   1.083       .  S
C1657      C1658   1.210       .  T
C1658      C1659   1.447       .  S
C1659      C1660   1.400       .  A
C1659      C1664   1.402       .  A
C1660      C1661   1.398       .  A
C1660      H1669   1.084       .  S
C1661      C1662   1.409       .  A
C1661      H1670   1.083       .  S
C1662      C1663   1.408       .  A
C1663      C1664   1.404       .  A
C1663      H1671   1.083       .  S
C1664      H1672   1.083       .  S
C1673      C1674   1.409       .  A
C1673      C1678   1.409       .  A
C1674      C1675   1.405       .  A
C1674      H1687   1.083       .  S
C1675      C1676   1.403       .  A
C1675      H1688   1.083       .  S
C1676      C1677   1.399       .  A
C1676      C1679   1.447       .  S
C1677      C1678   1.398       .  A
C1677      H1689   1.084       .  S
C1678      H1690   1.083       .  S
C1679      C1680   1.210       .  T
C1680      C1681   1.447       .  S
C1681      C1682   1.400       .  A
C1681      C1686   1.402       .  A
C1682      C1683   1.400       .  A
C1682      H1691   1.084       .  S
C1683      C1684   1.409       .  A
C1683      H1692   1.083       .  S
C1684      C1685   1.408       .  A
C1685      C1686   1.403       .  A
C1685      H1693   1.083       .  S
C1686      H1694   1.083       .  S
C1695      C1696   1.409       .  A
C1695      C1700   1.408       .  A
C1696      C1697   1.397       .  A
C1696      H1709   1.083       .  S
C1697      C1698   1.399       .  A
C1697      H1710   1.084       .  S
C1698      C1699   1.404       .  A
C1698      C1701   1.448       .  S
C1699      C1700   1.407       .  A
C1699      H1711   1.083       .  S
C1700      H1712   1.083       .  S
C1701      C1702   1.211       .  T
C1702      C1703   1.448       .  S
C1703      C1704   1.402       .  A
C1703      C1708   1.401       .  A
C1704      C1705   1.404       .  A
C1704      H1713   1.083       .  S
C1705      C1706   1.409       .  A
C1705      H1714   1.083       .  S
C1706      C1707   1.408       .  A
C1707      C1708   1.400       .  A
C1707      H1715   1.083       .  S
C1708      H1716   1.084       .  S
C1717      C1718   1.408       .  A
C1717      C1722   1.409       .  A
C1718      C1719   1.405       .  A
C1718      H1731   1.083       .  S
C1719      C1720   1.403       .  A
C1719      H1732   1.083       .  S
C1720      C1721   1.399       .  A
C1720      C1723   1.447       .  S
C1721      C1722   1.398       .  A
C1721      H1733   1.084       .  S
C1722      H1734   1.083       .  S
C1723      C1724   1.210       .  T
C1724      C1725   1.447       .  S
C1725      C1726   1.402       .  A
C1725      C1730   1.400       .  A
C1726      C1727   1.402       .  A
C1726      H1735   1.083       .  S
C1727      C1728   1.407       .  A
C1727      H1736   1.083       .  S
C1728      C1729   1.410       .  A
C1729      C1730   1.400       .  A
C1729      H1737   1.083       .  S
C1730      H1738   1.083       .  S
C1739      C1740   1.408       .  A
C1739      C1744   1.408       .  A
C1740      C1741   1.399       .  A
C1740      H1753   1.083       .  S
C1741      C1742   1.400       .  A
C1741      H1754   1.084       .  S
C1742      C1743   1.400       .  A
C1742      C1745   1.442       .  S
C1743      C1744   1.400       .  A
C1743      H1755   1.083       .  S
C1744      H1756   1.083       .  S
C1745      C1746   1.207       .  T
C1746      C1747   1.442       .  S
C1747      C1748   1.400       .  A
C1747      C1752   1.400       .  A
C1748      C1749   1.400       .  A
C1748      H1757   1.083       .  S
C1749      C1750   1.408       .  A
C1749      H1758   1.083       .  S
C1750      C1751   1.408       .  A
C1751      C1752   1.399       .  A
C1751      H1759   1.083       .  S
C1752      H1760   1.084       .  S
C1761      C1762   1.409       .  A
C1761      C1766   1.409       .  A
C1762      C1763   1.398       .  A
C1762      H1775   1.083       .  S
C1763      C1764   1.399       .  A
C1763      H1776   1.084       .  S
C1764      C1765   1.403       .  A
C1764      C1767   1.447       .  S
C1765      C1766   1.405       .  A
C1765      H1777   1.083       .  S
C1766      H1778   1.083       .  S
C1767      C1768   1.211       .  T
C1768      C1769   1.447       .  S
C1769      C1770   1.403       .  A
C1769      C1774   1.399       .  A
C1770      C1771   1.406       .  A
C1770      H1779   1.083       .  S
C1771      C1772   1.409       .  A
C1771      H1780   1.083       .  S
C1772      C1773   1.409       .  A
C1773      C1774   1.398       .  A
C1773      H1781   1.083       .  S
C1774      H1782   1.084       .  S
C1783      C1784   1.408       .  A
C1783      C1788   1.408       .  A
C1784      C1785   1.402       .  A
C1784      H1797   1.083       .  S
C1785      C1786   1.401       .  A
C1785      H1798   1.083       .  S
C1786      C1787   1.399       .  A
C1786      C1789   1.444       .  S
C1787      C1788   1.398       .  A
C1787      H1799   1.084       .  S
C1788      H1800   1.083       .  S
C1789      C1790   1.209       .  T
C1790      C1791   1.444       .  S
C1791      C1792   1.400       .  A
C1791      C1796   1.401       .  A
C1792      C1793   1.398       .  A
C1792      H1801   1.084       .  S
C1793      C1794   1.407       .  A
C1793      H1802   1.083       .  S
C1794      C1795   1.407       .  A
C1795      C1796   1.402       .  A
C1795      H1803   1.083       .  S
C1796      H1804   1.083       .  S
C1805      C1806   1.408       .  A
C1805      C1810   1.409       .  A
C1806      C1807   1.398       .  A
C1806      H1819   1.083       .  S
C1807      C1808   1.400       .  A
C1807      H1820   1.084       .  S
C1808      C1809   1.402       .  A
C1808      C1811   1.447       .  S
C1809      C1810   1.404       .  A
C1809      H1821   1.083       .  S
C1810      H1822   1.083       .  S
C1811      C1812   1.211       .  T
C1812      C1813   1.447       .  S
C1813      C1814   1.404       .  A
C1813      C1818   1.398       .  A
C1814      C1815   1.406       .  A
C1814      H1823   1.083       .  S
C1815      C1816   1.409       .  A
C1815      H1824   1.083       .  S
C1816      C1817   1.409       .  A
C1817      C1818   1.396       .  A
C1817      H1825   1.083       .  S
C1818      H1826   1.084       .  S
C1827      C1828   1.407       .  A
C1827      C1832   1.407       .  A
C1828      C1829   1.401       .  A
C1828      H1841   1.083       .  S
C1829      C1830   1.401       .  A
C1829      H1842   1.083       .  S
C1830      C1831   1.398       .  A
C1830      C1833   1.438       .  S
C1831      C1832   1.395       .  A
C1831      H1843   1.084       .  S
C1832      H1844   1.083       .  S
C1833      C1834   1.205       .  T
C1834      C1835   1.438       .  S
C1835      C1836   1.400       .  A
C1835      C1840   1.399       .  A
C1836      C1837   1.398       .  A
C1836      H1845   1.084       .  S
C1837      C1838   1.407       .  A
C1837      H1846   1.083       .  S
C1838      C1839   1.407       .  A
C1839      C1840   1.398       .  A
C1839      H1847   1.083       .  S
C1840      H1848   1.084       .  S
C1849      C1850   1.408       .  A
C1849      C1854   1.408       .  A
C1850      C1851   1.400       .  A
C1850      H1863   1.083       .  S
C1851      C1852   1.400       .  A
C1851      H1864   1.083       .  S
C1852      C1853   1.400       .  A
C1852      C1855   1.444       .  S
C1853      C1854   1.400       .  A
C1853      H1865   1.083       .  S
C1854      H1866   1.083       .  S
C1855      C1856   1.208       .  T
C1856      C1857   1.444       .  S
C1857      C1858   1.401       .  A
C1857      C1862   1.400       .  A
C1858      C1859   1.401       .  A
C1858      H1867   1.083       .  S
C1859      C1860   1.409       .  A
C1859      H1868   1.083       .  S
C1860      C1861   1.408       .  A
C1861      C1862   1.399       .  A
C1861      H1869   1.083       .  S
C1862      H1870   1.083       .  S
C1871      C1872   1.410       .  A
C1871      C1876   1.409       .  A
C1872      C1873   1.399       .  A
C1872      H1885   1.083       .  S
C1873      C1874   1.399       .  A
C1873      H1886   1.084       .  S
C1874      C1875   1.405       .  A
C1874      C1877   1.452       .  S
C1875      C1876   1.408       .  A
C1875      H1887   1.083       .  S
C1876      H1888   1.083       .  S
C1877      C1878   1.214       .  T
C1878      C1879   1.452       .  S
C1879      C1880   1.404       .  A
C1879      C1884   1.400       .  A
C1880      C1881   1.407       .  A
C1880      H1889   1.083       .  S
C1881      C1882   1.409       .  A
C1881      H1890   1.083       .  S
C1882      C1883   1.408       .  A
C1883      C1884   1.400       .  A
C1883      H1891   1.083       .  S
C1884      H1892   1.084       .  S
C1893      C1894   1.410       .  A
C1893      C1898   1.409       .  A
C1894      C1895   1.402       .  A
C1894      H1907   1.083       .  S
C1895      C1896   1.401       .  A
C1895      H1908   1.083       .  S
C1896      C1897   1.403       .  A
C1896      C1899   1.453       .  S
C1897      C1898   1.405       .  A
C1897      H1909   1.083       .  S
C1898      H1910   1.083       .  S
C1899      C1900   1.214       .  T
C1900      C1901   1.453       .  S
C1901      C1902   1.404       .  A
C1901      C1906   1.400       .  A
C1902      C1903   1.407       .  A
C1902      H1911   1.083       .  S
C1903      C1904   1.409       .  A
C1903      H1912   1.083       .  S
C1904      C1905   1.409       .  A
C1905      C1906   1.400       .  A
C1905      H1913   1.083       .  S
C1906      H1914   1.084       .  S
C1915      C1916   1.409       .  A
C1915      C1920   1.408       .  A
C1916      C1917   1.405       .  A
C1916      H1929   1.083       .  S
C1917      C1918   1.403       .  A
C1917      H1930   1.083       .  S
C1918      C1919   1.398       .  A
C1918      C1921   1.445       .  S
C1919      C1920   1.396       .  A
C1919      H1931   1.084       .  S
C1920      H1932   1.083       .  S
C1921      C1922   1.209       .  T
C1922      C1923   1.445       .  S
C1923      C1924   1.400       .  A
C1923      C1928   1.401       .  A
C1924      C1925   1.399       .  A
C1924      H1933   1.084       .  S
C1925      C1926   1.409       .  A
C1925      H1934   1.083       .  S
C1926      C1927   1.408       .  A
C1927      C1928   1.402       .  A
C1927      H1935   1.083       .  S
C1928      H1936   1.083       .  S
C1937      C1938   1.409       .  A
C1937      C1942   1.409       .  A
C1938      C1939   1.407       .  A
C1938      H1951   1.083       .  S
C1939      C1940   1.404       .  A
C1939      H1952   1.083       .  S
C1940      C1941   1.400       .  A
C1940      C1943   1.452       .  S
C1941      C1942   1.400       .  A
C1941      H1953   1.084       .  S
C1942      H1954   1.083       .  S
C1943      C1944   1.213       .  T
C1944      C1945   1.451       .  S
C1945      C1946   1.398       .  A
C1945      C1950   1.406       .  A
C1946      C1947   1.396       .  A
C1946      H1955   1.084       .  S
C1947      C1948   1.409       .  A
C1947      H1956   1.083       .  S
C1948      C1949   1.409       .  A
C1949      C1950   1.410       .  A
C1949      H1957   1.083       .  S
C1950      H1958   1.083       .  S
C1959      C1960   1.408       .  A
C1959      C1964   1.409       .  A
C1960      C1961   1.401       .  A
C1960      H1973   1.083       .  S
C1961      C1962   1.401       .  A
C1961      H1974   1.083       .  S
C1962      C1963   1.400       .  A
C1962      C1965   1.445       .  S
C1963      C1964   1.400       .  A
C1963      H1975   1.083       .  S
C1964      H1976   1.083       .  S
C1965      C1966   1.209       .  T
C1966      C1967   1.445       .  S
C1967      C1968   1.400       .  A
C1967      C1972   1.401       .  A
C1968      C1969   1.400       .  A
C1968      H1977   1.084       .  S
C1969      C1970   1.409       .  A
C1969      H1978   1.083       .  S
C1970      C1971   1.408       .  A
C1971      C1972   1.402       .  A
C1971      H1979   1.083       .  S
C1972      H1980   1.083       .  S
C1981      C1982   1.409       .  A
C1981      C1986   1.409       .  A
C1982      C1983   1.395       .  A
C1982      H1995   1.083       .  S
C1983      C1984   1.397       .  A
C1983      H1996   1.084       .  S
C1984      C1985   1.405       .  A
C1984      C1987   1.448       .  S
C1985      C1986   1.409       .  A
C1985      H1997   1.083       .  S
C1986      H1998   1.083       .  S
C1987      C1988   1.211       .  T
C1988      C1989   1.449       .  S
C1989      C1990   1.402       .  A
C1989      C1994   1.401       .  A
C1990      C1991   1.404       .  A
C1990      H1999   1.083       .  S
C1991      C1992   1.409       .  A
C1991      H2000   1.083       .  S
C1992      C1993   1.408       .  A
C1993      C1994   1.400       .  A
C1993      H2001   1.083       .  S
C1994      H2002   1.084       .  S
C2003      C2004   1.407       .  A
C2003      C2008   1.408       .  A
C2004      C2005   1.401       .  A
C2004      H2017   1.083       .  S
C2005      C2006   1.401       .  A
C2005      H2018   1.083       .  S
C2006      C2007   1.399       .  A
C2006      C2009   1.441       .  S
C2007      C2008   1.397       .  A
C2007      H2019   1.084       .  S
C2008      H2020   1.083       .  S
C2009      C2010   1.207       .  T
C2010      C2011   1.442       .  S
C2011      C2012   1.400       .  A
C2011      C2016   1.399       .  A
C2012      C2013   1.400       .  A
C2012      H2021   1.083       .  S
C2013      C2014   1.407       .  A
C2013      H2022   1.083       .  S
C2014      C2015   1.408       .  A
C2015      C2016   1.399       .  A
C2015      H2023   1.083       .  S
C2016      H2024   1.084       .  S
C2025      C2026   1.409       .  A
C2025      C2030   1.410       .  A
C2026      C2027   1.410       .  A
C2026      H2039   1.083       .  S
C2027      C2028   1.406       .  A
C2027      H2040   1.083       .  S
C2028      C2029   1.398       .  A
C2028      C2031   1.452       .  S
C2029      C2030   1.397       .  A
C2029      H2041   1.084       .  S
C2030      H2042   1.083       .  S
C2031      C2032   1.213       .  T
C2032      C2033   1.452       .  S
C2033      C2034   1.400       .  A
C2033      C2038   1.404       .  A
C2034      C2035   1.400       .  A
C2034      H2043   1.084       .  S
C2035      C2036   1.409       .  A
C2035      H2044   1.083       .  S
C2036      C2037   1.409       .  A
C2037      C2038   1.407       .  A
C2037      H2045   1.083       .  S
C2038      H2046   1.083       .  S
C2047      C2048   1.409       .  A
C2047      C2052   1.409       .  A
C2048      C2049   1.394       .  A
C2048      H2061   1.083       .  S
C2049      C2050   1.397       .  A
C2049      H2062   1.084       .  S
C2050      C2051   1.404       .  A
C2050      C2053   1.447       .  S
C2051      C2052   1.408       .  A
C2051      H2063   1.083       .  S
C2052      H2064   1.083       .  S
C2053      C2054   1.211       .  T
C2054      C2055   1.447       .  S
C2055      C2056   1.405       .  A
C2055      C2060   1.397       .  A
C2056      C2057   1.409       .  A
C2056      H2065   1.083       .  S
C2057      C2058   1.409       .  A
C2057      H2066   1.083       .  S
C2058      C2059   1.408       .  A
C2059      C2060   1.394       .  A
C2059      H2067   1.083       .  S
C2060      H2068   1.084       .  S
C2069      C2070   1.408       .  A
C2069      C2074   1.407       .  A
C2070      C2071   1.400       .  A
C2070      H2083   1.083       .  S
C2071      C2072   1.400       .  A
C2071      H2084   1.083       .  S
C2072      C2073   1.397       .  A
C2072      C2075   1.436       .  S
C2073      C2074   1.394       .  A
C2073      H2085   1.084       .  S
C2074      H2086   1.083       .  S
C2075      C2076   1.204       .  T
C2076      C2077   1.437       .  S
C2077      C2078   1.400       .  A
C2077      C2082   1.398       .  A
C2078      C2079   1.399       .  A
C2078      H2087   1.083       .  S
C2079      C2080   1.408       .  A
C2079      H2088   1.083       .  S
C2080      C2081   1.407       .  A
C2081      C2082   1.395       .  A
C2081      H2089   1.083       .  S
C2082      H2090   1.084       .  S
C2091      C2092   1.409       .  A
C2091      C2096   1.408       .  A
C2092      C2093   1.405       .  A
C2092      H2105   1.083       .  S
C2093      C2094   1.403       .  A
C2093      H2106   1.083       .  S
C2094      C2095   1.399       .  A
C2094      C2097   1.447       .  S
C2095      C2096   1.397       .  A
C2095      H2107   1.084       .  S
C2096      H2108   1.083       .  S
C2097      C2098   1.210       .  T
C2098      C2099   1.447       .  S
C2099      C2100   1.398       .  A
C2099      C2104   1.403       .  A
C2100      C2101   1.397       .  A
C2100      H2109   1.084       .  S
C2101      C2102   1.409       .  A
C2101      H2110   1.083       .  S
C2102      C2103   1.409       .  A
C2103      C2104   1.406       .  A
C2103      H2111   1.083       .  S
C2104      H2112   1.083       .  S
C2113      C2114   1.408       .  A
C2113      C2118   1.408       .  A
C2114      C2115   1.401       .  A
C2114      H2127   1.083       .  S
C2115      C2116   1.401       .  A
C2115      H2128   1.083       .  S
C2116      C2117   1.400       .  A
C2116      C2119   1.443       .  S
C2117      C2118   1.399       .  A
C2117      H2129   1.084       .  S
C2118      H2130   1.083       .  S
C2119      C2120   1.208   1_556  T
C2120      C2121   1.443       .  S
C2121      C2122   1.400       .  A
C2121      C2126   1.400       .  A
C2122      C2123   1.400       .  A
C2122      H2131   1.084       .  S
C2123      C2124   1.408       .  A
C2123      H2132   1.083       .  S
C2124      C2125   1.408       .  A
C2125      C2126   1.400       .  A
C2125      H2133   1.083       .  S
C2126      H2134   1.083       .  S
C2135      C2136   1.407       .  A
C2135      C2140   1.408       .  A
C2136      C2137   1.393       .  A
C2136      H2149   1.083       .  S
C2137      C2138   1.397       .  A
C2137      H2150   1.084       .  S
C2138      C2139   1.404       .  A
C2138      C2141   1.445       .  S
C2139      C2140   1.408       .  A
C2139      H2151   1.083       .  S
C2140      H2152   1.083       .  S
C2141      C2142   1.209       .  T
C2142      C2143   1.445       .  S
C2143      C2144   1.404       .  A
C2143      C2148   1.397       .  A
C2144      C2145   1.407       .  A
C2144      H2153   1.083       .  S
C2145      C2146   1.408       .  A
C2145      H2154   1.083       .  S
C2146      C2147   1.408       .  A
C2147      C2148   1.393       .  A
C2147      H2155   1.083       .  S
C2148      H2156   1.084       .  S
C2157      C2158   1.408       .  A
C2157      C2162   1.408       .  A
C2158      C2159   1.390       .  A
C2158      H2171   1.083       .  S
C2159      C2160   1.395       .  A
C2159      H2172   1.084       .  S
C2160      C2161   1.403       .  A
C2160      C2163   1.439       .  S
C2161      C2162   1.406       .  A
C2161      H2173   1.083       .  S
C2162      H2174   1.083       .  S
C2163      C2164   1.206       .  T
C2164      C2165   1.440       .  S
C2165      C2166   1.401       .  A
C2165      C2170   1.399       .  A
C2166      C2167   1.401       .  A
C2166      H2175   1.083       .  S
C2167      C2168   1.408       .  A
C2167      H2176   1.083       .  S
C2168      C2169   1.407       .  A
C2169      C2170   1.396       .  A
C2169      H2177   1.083       .  S
C2170      H2178   1.084       .  S
C2179      C2180   1.409       .  A
C2179      C2184   1.410       .  A
C2180      C2181   1.407       .  A
C2180      H2193   1.083       .  S
C2181      C2182   1.404       .  A
C2181      H2194   1.083       .  S
C2182      C2183   1.400       .  A
C2182      C2185   1.452       .  S
C2183      C2184   1.399       .  A
C2183      H2195   1.084       .  S
C2184      H2196   1.083       .  S
C2185      C2186   1.213       .  T
C2186      C2187   1.452       .  S
C2187      C2188   1.399       .  A
C2187      C2192   1.404       .  A
C2188      C2189   1.399       .  A
C2188      H2197   1.084       .  S
C2189      C2190   1.410       .  A
C2189      H2198   1.083       .  S
C2190      C2191   1.409       .  A
C2191      C2192   1.408       .  A
C2191      H2199   1.083       .  S
C2192      H2200   1.083       .  S
C2201      C2202   1.407       .  A
C2201      C2206   1.407       .  A
C2202      C2203   1.399       .  A
C2202      H2215   1.083       .  S
C2203      C2204   1.400       .  A
C2203      H2216   1.083       .  S
C2204      C2205   1.398       .  A
C2204      C2207   1.437       .  S
C2205      C2206   1.395       .  A
C2205      H2217   1.084       .  S
C2206      H2218   1.083       .  S
C2207      C2208   1.204       .  T
C2208      C2209   1.437       .  S
C2209      C2210   1.400       .  A
C2209      C2214   1.398       .  A
C2210      C2211   1.400       .  A
C2210      H2219   1.083       .  S
C2211      C2212   1.408       .  A
C2211      H2220   1.083       .  S
C2212      C2213   1.406       .  A
C2213      C2214   1.395       .  A
C2213      H2221   1.083       .  S
C2214      H2222   1.084       .  S
C2223      C2224   1.408       .  A
C2223      C2228   1.408       .  A
C2224      C2225   1.391       .  A
C2224      H2237   1.083       .  S
C2225      C2226   1.396       .  A
C2225      H2238   1.084       .  S
C2226      C2227   1.404       .  A
C2226      C2229   1.442       .  S
C2227      C2228   1.407       .  A
C2227      H2239   1.083       .  S
C2228      H2240   1.083       .  S
C2229      C2230   1.208       .  T
C2230      C2231   1.442       .  S
C2231      C2232   1.402       .  A
C2231      C2236   1.398       .  A
C2232      C2233   1.405       .  A
C2232      H2241   1.083       .  S
C2233      C2234   1.408       .  A
C2233      H2242   1.083       .  S
C2234      C2235   1.407       .  A
C2235      C2236   1.394       .  A
C2235      H2243   1.083       .  S
C2236      H2244   1.084       .  S
C2245      C2246   1.408       .  A
C2245      C2250   1.409       .  A
C2246      C2247   1.403       .  A
C2246      H2259   1.083       .  S
C2247      C2248   1.402       .  A
C2247      H2260   1.083       .  S
C2248      C2249   1.400       .  A
C2248      C2251   1.448       .  S
C2249      C2250   1.400       .  A
C2249      H2261   1.084       .  S
C2250      H2262   1.083       .  S
C2251      C2252   1.211       .  T
C2252      C2253   1.448       .  S
C2253      C2254   1.399       .  A
C2253      C2258   1.403       .  A
C2254      C2255   1.398       .  A
C2254      H2263   1.084       .  S
C2255      C2256   1.409       .  A
C2255      H2264   1.083       .  S
C2256      C2257   1.409       .  A
C2257      C2258   1.405       .  A
C2257      H2265   1.083       .  S
C2258      H2266   1.083       .  S
C2267      C2268   1.410       .  A
C2267      C2272   1.409       .  A
C2268      C2269   1.399       .  A
C2268      H2281   1.083       .  S
C2269      C2270   1.400       .  A
C2269      H2282   1.084       .  S
C2270      C2271   1.405       .  A
C2270      C2273   1.453       .  S
C2271      C2272   1.408       .  A
C2271      H2283   1.083       .  S
C2272      H2284   1.083       .  S
C2273      C2274   1.214       .  T
C2274      C2275   1.453       .  S
C2275      C2276   1.404       .  A
C2275      C2280   1.400       .  A
C2276      C2277   1.408       .  A
C2276      H2285   1.083       .  S
C2277      C2278   1.410       .  A
C2277      H2286   1.083       .  S
C2278      C2279   1.409       .  A
C2279      C2280   1.400       .  A
C2279      H2287   1.083       .  S
C2280      H2288   1.084       .  S
C2289      C2290   1.408       .  A
C2289      C2294   1.408       .  A
C2290      C2291   1.400       .  A
C2290      H2303   1.083       .  S
C2291      C2292   1.400       .  A
C2291      H2304   1.084       .  S
C2292      C2293   1.401       .  A
C2292      C2295   1.444       .  S
C2293      C2294   1.401       .  A
C2293      H2305   1.083       .  S
C2294      H2306   1.083       .  S
C2295      C2296   1.209       .  T
C2296      C2297   1.444       .  S
C2297      C2298   1.401       .  A
C2297      C2302   1.399       .  A
C2298      C2299   1.403       .  A
C2298      H2307   1.083       .  S
C2299      C2300   1.409       .  A
C2299      H2308   1.083       .  S
C2300      C2301   1.408       .  A
C2301      C2302   1.398       .  A
C2301      H2309   1.083       .  S
C2302      H2310   1.084       .  S
C2311      C2312   1.407       .  A
C2311      C2316   1.407       .  A
C2312      C2313   1.397       .  A
C2312      H2325   1.083       .  S
C2313      C2314   1.399       .  A
C2313      H2326   1.084       .  S
C2314      C2315   1.398       .  A
C2314      C2317   1.436       .  S
C2315      C2316   1.397       .  A
C2315      H2327   1.084       .  S
C2316      H2328   1.083       .  S
C2317      C2318   1.204   1_554  T
C2318      C2319   1.436       .  S
C2319      C2320   1.399       .  A
C2319      C2324   1.398       .  A
C2320      C2321   1.398       .  A
C2320      H2329   1.083       .  S
C2321      C2322   1.407       .  A
C2321      H2330   1.083       .  S
C2322      C2323   1.407       .  A
C2323      C2324   1.396       .  A
C2323      H2331   1.083       .  S
C2324      H2332   1.084       .  S
C2333      C2334   1.407       .  A
C2333      C2338   1.406       .  A
C2334      C2335   1.397       .  A
C2334      H2347   1.083       .  S
C2335      C2336   1.399       .  A
C2335      H2348   1.083       .  S
C2336      C2337   1.398       .  A
C2336      C2339   1.434       .  S
C2337      C2338   1.395       .  A
C2337      H2349   1.084       .  S
C2338      H2350   1.083       .  S
C2339      C2340   1.203       .  T
C2340      C2341   1.434       .  S
C2341      C2342   1.399       .  A
C2341      C2346   1.398       .  A
C2342      C2343   1.398       .  A
C2342      H2351   1.083       .  S
C2343      C2344   1.407       .  A
C2343      H2352   1.083       .  S
C2344      C2345   1.407       .  A
C2345      C2346   1.395       .  A
C2345      H2353   1.083       .  S
C2346      H2354   1.084       .  S
C2355      C2356   1.408       .  A
C2355      C2360   1.409       .  A
C2356      C2357   1.397       .  A
C2356      H2369   1.083       .  S
C2357      C2358   1.399       .  A
C2357      H2370   1.084       .  S
C2358      C2359   1.401       .  A
C2358      C2361   1.443       .  S
C2359      C2360   1.403       .  A
C2359      H2371   1.083       .  S
C2360      H2372   1.083       .  S
C2361      C2362   1.208       .  T
C2362      C2363   1.442       .  S
C2363      C2364   1.404       .  A
C2363      C2368   1.396       .  A
C2364      C2365   1.407       .  A
C2364      H2373   1.083       .  S
C2365      C2366   1.407       .  A
C2365      H2374   1.083       .  S
C2366      C2367   1.408       .  A
C2367      C2368   1.392       .  A
C2367      H2375   1.083       .  S
C2368      H2376   1.084       .  S
C2377      C2378   1.410       .  A
C2377      C2382   1.409       .  A
C2378      C2379   1.400       .  A
C2378      H2391   1.083       .  S
C2379      C2380   1.400       .  A
C2379      H2392   1.084       .  S
C2380      C2381   1.404       .  A
C2380      C2383   1.453       .  S
C2381      C2382   1.408       .  A
C2381      H2393   1.083       .  S
C2382      H2394   1.083       .  S
C2383      C2384   1.214       .  T
C2384      C2385   1.453       .  S
C2385      C2386   1.404       .  A
C2385      C2390   1.400       .  A
C2386      C2387   1.408       .  A
C2386      H2395   1.083       .  S
C2387      C2388   1.410       .  A
C2387      H2396   1.083       .  S
C2388      C2389   1.409       .  A
C2389      C2390   1.400       .  A
C2389      H2397   1.083       .  S
C2390      H2398   1.084       .  S
C2399      C2400   1.406       .  A
C2399      C2404   1.407       .  A
C2400      C2401   1.394       .  A
C2400      H2413   1.083       .  S
C2401      C2402   1.398       .  A
C2401      H2414   1.084       .  S
C2402      C2403   1.398       .  A
C2402      C2405   1.432       .  S
C2403      C2404   1.397       .  A
C2403      H2415   1.083       .  S
C2404      H2416   1.083       .  S
C2405      C2406   1.202       .  T
C2406      C2407   1.432       .  S
C2407      C2408   1.398       .  A
C2407      C2412   1.398       .  A
C2408      C2409   1.396       .  A
C2408      H2417   1.084       .  S
C2409      C2410   1.406       .  A
C2409      H2418   1.083       .  S
C2410      C2411   1.406       .  A
C2411      C2412   1.395       .  A
C2411      H2419   1.083       .  S
C2412      H2420   1.084       .  S
C2421      C2422   1.409       .  A
C2421      C2426   1.408       .  A
C2422      C2423   1.408       .  A
C2422      H2435   1.083       .  S
C2423      C2424   1.404       .  A
C2423      H2436   1.083       .  S
C2424      C2425   1.398       .  A
C2424      C2427   1.446       .  S
C2425      C2426   1.394       .  A
C2425      H2437   1.084       .  S
C2426      H2438   1.083       .  S
C2427      C2428   1.210       .  T
C2428      C2429   1.445       .  S
C2429      C2430   1.397       .  A
C2429      C2434   1.404       .  A
C2430      C2431   1.393       .  A
C2430      H2439   1.084       .  S
C2431      C2432   1.408       .  A
C2431      H2440   1.083       .  S
C2432      C2433   1.409       .  A
C2433      C2434   1.409       .  A
C2433      H2441   1.083       .  S
C2434      H2442   1.083       .  S
C2443      C2444   1.408       .  A
C2443      C2448   1.408       .  A
C2444      C2445   1.398       .  A
C2444      H2457   1.083       .  S
C2445      C2446   1.399       .  A
C2445      H2458   1.084       .  S
C2446      C2447   1.401       .  A
C2446      C2449   1.442       .  S
C2447      C2448   1.402       .  A
C2447      H2459   1.083       .  S
C2448      H2460   1.083       .  S
C2449      C2450   1.207       .  T
C2450      C2451   1.442       .  S
C2451      C2452   1.401       .  A
C2451      C2456   1.399       .  A
C2452      C2453   1.402       .  A
C2452      H2461   1.083       .  S
C2453      C2454   1.408       .  A
C2453      H2462   1.083       .  S
C2454      C2455   1.407       .  A
C2455      C2456   1.396       .  A
C2455      H2463   1.083       .  S
C2456      H2464   1.084       .  S
C2465      C2466   1.409       .  A
C2465      C2470   1.410       .  A
C2466      C2467   1.408       .  A
C2466      H2479   1.083       .  S
C2467      C2468   1.405       .  A
C2467      H2480   1.083       .  S
C2468      C2469   1.400       .  A
C2468      C2471   1.453       .  S
C2469      C2470   1.400       .  A
C2469      H2481   1.084       .  S
C2470      H2482   1.083       .  S
C2471      C2472   1.214       .  T
C2472      C2473   1.453       .  S
C2473      C2474   1.401       .  A
C2473      C2478   1.404       .  A
C2474      C2475   1.401       .  A
C2474      H2483   1.084       .  S
C2475      C2476   1.410       .  A
C2475      H2484   1.083       .  S
C2476      C2477   1.408       .  A
C2477      C2478   1.407       .  A
C2477      H2485   1.083       .  S
C2478      H2486   1.083       .  S
C2487      C2488   1.408       .  A
C2487      C2492   1.408       .  A
C2488      C2489   1.398       .  A
C2488      H2501   1.083       .  S
C2489      C2490   1.399       .  A
C2489      H2502   1.084       .  S
C2490      C2491   1.402       .  A
C2490      C2493   1.446       .  S
C2491      C2492   1.404       .  A
C2491      H2503   1.083       .  S
C2492      H2504   1.083       .  S
C2493      C2494   1.209       .  T
C2494      C2495   1.446       .  S
C2495      C2496   1.402       .  A
C2495      C2500   1.400       .  A
C2496      C2497   1.402       .  A
C2496      H2505   1.083       .  S
C2497      C2498   1.408       .  A
C2497      H2506   1.083       .  S
C2498      C2499   1.409       .  A
C2499      C2500   1.399       .  A
C2499      H2507   1.083       .  S
C2500      H2508   1.084       .  S
C2509      C2510   1.408       .  A
C2509      C2514   1.408       .  A
C2510      C2511   1.400       .  A
C2510      H2523   1.083       .  S
C2511      C2512   1.400       .  A
C2511      H2524   1.083       .  S
C2512      C2513   1.399       .  A
C2512      C2515   1.441       .  S
C2513      C2514   1.397       .  A
C2513      H2525   1.084       .  S
C2514      H2526   1.083       .  S
C2515      C2516   1.207   1_556  T
C2516      C2517   1.441       .  S
C2517      C2518   1.400       .  A
C2517      C2522   1.399       .  A
C2518      C2519   1.399       .  A
C2518      H2527   1.084       .  S
C2519      C2520   1.408       .  A
C2519      H2528   1.083       .  S
C2520      C2521   1.408       .  A
C2521      C2522   1.399       .  A
C2521      H2529   1.083       .  S
C2522      H2530   1.083       .  S
C2531      C2532   1.407       .  A
C2531      C2536   1.406       .  A
C2532      C2533   1.398       .  A
C2532      H2545   1.083       .  S
C2533      C2534   1.399       .  A
C2533      H2546   1.083       .  S
C2534      C2535   1.399       .  A
C2534      C2537   1.436       .  S
C2535      C2536   1.396       .  A
C2535      H2547   1.084       .  S
C2536      H2548   1.083       .  S
C2537      C2538   1.203       .  T
C2538      C2539   1.435       .  S
C2539      C2540   1.399       .  A
C2539      C2544   1.399       .  A
C2540      C2541   1.396       .  A
C2540      H2549   1.084       .  S
C2541      C2542   1.406       .  A
C2541      H2550   1.083       .  S
C2542      C2543   1.407       .  A
C2543      C2544   1.398       .  A
C2543      H2551   1.083       .  S
C2544      H2552   1.083       .  S
C2553      C2554   1.409       .  A
C2553      C2558   1.409       .  A
C2554      C2555   1.393       .  A
C2554      H2567   1.083       .  S
C2555      C2556   1.396       .  A
C2555      H2568   1.084       .  S
C2556      C2557   1.405       .  A
C2556      C2559   1.446       .  S
C2557      C2558   1.409       .  A
C2557      H2569   1.083       .  S
C2558      H2570   1.083       .  S
C2559      C2560   1.210       .  T
C2560      C2561   1.447       .  S
C2561      C2562   1.403       .  A
C2561      C2566   1.399       .  A
C2562      C2563   1.406       .  A
C2562      H2571   1.083       .  S
C2563      C2564   1.408       .  A
C2563      H2572   1.083       .  S
C2564      C2565   1.406       .  A
C2565      C2566   1.396       .  A
C2565      H2573   1.083       .  S
C2566      H2574   1.084       .  S
C2575      C2576   1.408       .  A
C2575      C2580   1.409       .  A
C2576      C2577   1.397       .  A
C2576      H2589   1.083       .  S
C2577      C2578   1.399       .  A
C2577      H2590   1.084       .  S
C2578      C2579   1.402       .  A
C2578      C2581   1.445       .  S
C2579      C2580   1.404       .  A
C2579      H2591   1.083       .  S
C2580      H2592   1.083       .  S
C2581      C2582   1.209       .  T
C2582      C2583   1.444       .  S
C2583      C2584   1.403       .  A
C2583      C2588   1.398       .  A
C2584      C2585   1.405       .  A
C2584      H2593   1.083       .  S
C2585      C2586   1.408       .  A
C2585      H2594   1.083       .  S
C2586      C2587   1.408       .  A
C2587      C2588   1.396       .  A
C2587      H2595   1.083       .  S
C2588      H2596   1.084       .  S
C2597      C2598   1.409       .  A
C2597      C2602   1.410       .  A
C2598      C2599   1.394       .  A
C2598      H2611   1.083       .  S
C2599      C2600   1.397       .  A
C2599      H2612   1.084       .  S
C2600      C2601   1.406       .  A
C2600      C2603   1.450       .  S
C2601      C2602   1.411       .  A
C2601      H2613   1.083       .  S
C2602      H2614   1.083       .  S
C2603      C2604   1.212       .  T
C2604      C2605   1.450       .  S
C2605      C2606   1.406       .  A
C2605      C2610   1.398       .  A
C2606      C2607   1.410       .  A
C2606      H2615   1.083       .  S
C2607      C2608   1.409       .  A
C2607      H2616   1.083       .  S
C2608      C2609   1.408       .  A
C2609      C2610   1.395       .  A
C2609      H2617   1.083       .  S
C2610      H2618   1.084       .  S
C2619      C2620   1.406       .  A
C2619      C2624   1.407       .  A
C2620      C2621   1.398       .  A
C2620      H2633   1.083       .  S
C2621      C2622   1.400       .  A
C2621      H2634   1.083       .  S
C2622      C2623   1.398       .  A
C2622      C2625   1.437       .  S
C2623      C2624   1.396       .  A
C2623      H2635   1.084       .  S
C2624      H2636   1.083       .  S
C2625      C2626   1.204       .  T
C2626      C2627   1.437       .  S
C2627      C2628   1.399       .  A
C2627      C2632   1.398       .  A
C2628      C2629   1.399       .  A
C2628      H2637   1.083       .  S
C2629      C2630   1.408       .  A
C2629      H2638   1.083       .  S
C2630      C2631   1.407       .  A
C2631      C2632   1.396       .  A
C2631      H2639   1.083       .  S
C2632      H2640   1.084       .  S
C2641      C2642   1.408       .  A
C2641      C2646   1.408       .  A
C2642      C2643   1.400       .  A
C2642      H2655   1.083       .  S
C2643      C2644   1.400       .  A
C2643      H2656   1.084       .  S
C2644      C2645   1.403       .  A
C2644      C2647   1.449       .  S
C2645      C2646   1.404       .  A
C2645      H2657   1.083       .  S
C2646      H2658   1.083       .  S
C2647      C2648   1.211       .  T
C2648      C2649   1.449       .  S
C2649      C2650   1.402       .  A
C2649      C2654   1.401       .  A
C2650      C2651   1.403       .  A
C2650      H2659   1.083       .  S
C2651      C2652   1.409       .  A
C2651      H2660   1.083       .  S
C2652      C2653   1.409       .  A
C2653      C2654   1.401       .  A
C2653      H2661   1.083       .  S
C2654      H2662   1.083       .  S
C2663      C2664   1.408       .  A
C2663      C2668   1.409       .  A
C2664      C2665   1.397       .  A
C2664      H2677   1.083       .  S
C2665      C2666   1.399       .  A
C2665      H2678   1.084       .  S
C2666      C2667   1.403       .  A
C2666      C2669   1.446       .  S
C2667      C2668   1.405       .  A
C2667      H2679   1.083       .  S
C2668      H2680   1.083       .  S
C2669      C2670   1.210       .  T
C2670      C2671   1.446       .  S
C2671      C2672   1.401       .  A
C2671      C2676   1.401       .  A
C2672      C2673   1.402       .  A
C2672      H2681   1.083       .  S
C2673      C2674   1.409       .  A
C2673      H2682   1.083       .  S
C2674      C2675   1.408       .  A
C2675      C2676   1.400       .  A
C2675      H2683   1.083       .  S
C2676      H2684   1.084       .  S
C2685      C2686   1.408       .  A
C2685      C2690   1.408       .  A
C2686      C2687   1.405       .  A
C2686      H2699   1.083       .  S
C2687      C2688   1.403       .  A
C2687      H2700   1.083       .  S
C2688      C2689   1.400       .  A
C2688      C2691   1.450       .  S
C2689      C2690   1.400       .  A
C2689      H2701   1.084       .  S
C2690      H2702   1.083       .  S
C2691      C2692   1.212       .  T
C2692      C2693   1.450       .  S
C2693      C2694   1.399       .  A
C2693      C2698   1.404       .  A
C2694      C2695   1.399       .  A
C2694      H2703   1.084       .  S
C2695      C2696   1.409       .  A
C2695      H2704   1.083       .  S
C2696      C2697   1.409       .  A
C2697      C2698   1.407       .  A
C2697      H2705   1.083       .  S
C2698      H2706   1.083       .  S
C2707      C2708   1.409       .  A
C2707      C2712   1.408       .  A
C2708      C2709   1.402       .  A
C2708      H2721   1.083       .  S
C2709      C2710   1.401       .  A
C2709      H2722   1.083       .  S
C2710      C2711   1.400       .  A
C2710      C2713   1.446       .  S
C2711      C2712   1.400       .  A
C2711      H2723   1.084       .  S
C2712      H2724   1.083       .  S
C2713      C2714   1.209       .  T
C2714      C2715   1.445       .  S
C2715      C2716   1.399       .  A
C2715      C2720   1.402       .  A
C2716      C2717   1.398       .  A
C2716      H2725   1.084       .  S
C2717      C2718   1.408       .  A
C2717      H2726   1.083       .  S
C2718      C2719   1.408       .  A
C2719      C2720   1.404       .  A
C2719      H2727   1.083       .  S
C2720      H2728   1.083       .  S
C2729      C2730   1.409       .  A
C2729      C2734   1.408       .  A
C2730      C2731   1.400       .  A
C2730      H2743   1.083       .  S
C2731      C2732   1.400       .  A
C2731      H2744   1.084       .  S
C2732      C2733   1.401       .  A
C2732      C2735   1.447       .  S
C2733      C2734   1.402       .  A
C2733      H2745   1.083       .  S
C2734      H2746   1.083       .  S
C2735      C2736   1.210       .  T
C2736      C2737   1.447       .  S
C2737      C2738   1.402       .  A
C2737      C2742   1.400       .  A
C2738      C2739   1.404       .  A
C2738      H2747   1.083       .  S
C2739      C2740   1.408       .  A
C2739      H2748   1.083       .  S
C2740      C2741   1.408       .  A
C2741      C2742   1.399       .  A
C2741      H2749   1.083       .  S
C2742      H2750   1.084       .  S
C2751      C2752   1.407       .  A
C2751      C2756   1.409       .  A
C2752      C2753   1.398       .  A
C2752      H2765   1.083       .  S
C2753      C2754   1.399       .  A
C2753      H2766   1.084       .  S
C2754      C2755   1.400       .  A
C2754      C2757   1.442       .  S
C2755      C2756   1.401       .  A
C2755      H2767   1.083       .  S
C2756      H2768   1.083       .  S
C2757      C2758   1.207   1_556  T
C2758      C2759   1.441       .  S
C2759      C2760   1.399       .  A
C2759      C2764   1.400       .  A
C2760      C2761   1.399       .  A
C2760      H2769   1.083       .  S
C2761      C2762   1.408       .  A
C2761      H2770   1.083       .  S
C2762      C2763   1.407       .  A
C2763      C2764   1.399       .  A
C2763      H2771   1.083       .  S
C2764      H2772   1.084       .  S
C2773      C2774   1.407       .  A
C2773      C2778   1.406       .  A
C2774      C2775   1.408       .  A
C2774      H2787   1.083       .  S
C2775      C2776   1.405       .  A
C2775      H2788   1.083       .  S
C2776      C2777   1.398       .  A
C2776      C2779   1.447       .  S
C2777      C2778   1.395       .  A
C2777      H2789   1.084       .  S
C2778      H2790   1.083       .  S
C2779      C2780   1.211       .  T
C2780      C2781   1.447       .  S
C2781      C2782   1.398       .  A
C2781      C2786   1.404       .  A
C2782      C2783   1.395       .  A
C2782      H2791   1.084       .  S
C2783      C2784   1.408       .  A
C2783      H2792   1.083       .  S
C2784      C2785   1.409       .  A
C2785      C2786   1.408       .  A
C2785      H2793   1.083       .  S
C2786      H2794   1.083       .  S
C2795      C2796   1.407       .  A
C2795      C2800   1.406       .  A
C2796      C2797   1.397       .  A
C2796      H2809   1.083       .  S
C2797      C2798   1.399       .  A
C2797      H2810   1.083       .  S
C2798      C2799   1.398       .  A
C2798      C2801   1.433       .  S
C2799      C2800   1.395       .  A
C2799      H2811   1.084       .  S
C2800      H2812   1.083       .  S
C2801      C2802   1.202       .  T
C2802      C2803   1.433       .  S
C2803      C2804   1.399       .  A
C2803      C2808   1.399       .  A
C2804      C2805   1.397       .  A
C2804      H2813   1.084       .  S
C2805      C2806   1.407       .  A
C2805      H2814   1.083       .  S
C2806      C2807   1.405       .  A
C2807      C2808   1.396       .  A
C2807      H2815   1.083       .  S
C2808      H2816   1.084       .  S
