geometry optimzed in LAMMPS
_audit_creation_date              2020-12-01 
_audit_creation_method            'lammps2cif' 
_symmetry_space_group_name_H-M    'P1' 
_symmetry_Int_Tables_number       1 
_symmetry_cell_setting            triclinic 
loop_ 
_symmetry_equiv_pos_as_xyz 
  x,y,z 
_cell_length_a                    30.97146072 
_cell_length_b                    30.97106088002082 
_cell_length_c                    34.28949376401813 
_cell_angle_alpha                 89.99666728681676 
_cell_angle_beta                  90.00107282876475 
_cell_angle_gamma                 90.00006643270795 
loop_ 
_atom_site_label 
_atom_site_type_symbol 
_atom_site_fract_x 
_atom_site_fract_y 
_atom_site_fract_z 
_atom_site_charge 
O1          O  0.88677518  0.10681037  0.71167069    -0.80100
C2          C  0.84252420  0.22467013  0.83102717     0.99300
O3          O  0.83902451  0.23186436  0.79473138    -0.69200
O4          O  0.90794693  0.21996493  0.75641772    -0.72800
Al5        Al  0.85403249  0.19758697  0.74890273     1.49000
C6          C  0.94268556  0.20166654  0.74875388     0.94500
O7          O  0.93352769  0.12193301  0.81157211    -0.79000
O8          O  0.81277028  0.08156471  0.78784329    -0.72600
Al9        Al  0.90806403  0.11571612  0.76224152     1.90100
O10         O  0.87531246  0.10583563  0.84517983    -0.71600
O11         O  0.77799322  0.16630709  0.79673082    -0.71500
O12         O  0.84512092  0.18632777  0.84397642    -0.77100
O13         O  0.79846744  0.17912582  0.73785473    -0.75300
O14         O  0.86452432  0.14989656  0.77558357    -1.11500
O15         O  0.86827912  0.17403020  0.69926874    -0.70700
C16         C  0.87594510  0.13598261  0.68822082     1.00100
C17         C  0.91581277  0.11243427  0.84338042     0.96400
Al18       Al  0.83012739  0.13516444  0.81510909     1.55600
O19         O  0.94568014  0.16123440  0.74535105    -0.75300
C20         C  0.77275201  0.18623672  0.76477862     1.00600
C21         C  0.83985846  0.05316326  0.77611005     0.95500
O22         O  0.87974561  0.06214148  0.77553905    -0.80600
O23         O  0.61414318  0.30521425  0.80691622    -0.80100
C24         C  0.57119219  0.38151924  0.66404601     0.99300
O25         O  0.56039760  0.39632539  0.69664577    -0.69200
O26         O  0.52243607  0.33114767  0.72782526    -0.72800
Al27       Al  0.56568800  0.37053490  0.74665071     1.49000
C28         C  0.52117183  0.29266736  0.73920163     0.94500
O29         O  0.59589655  0.25043795  0.70982401    -0.79000
O30         O  0.69496830  0.32476113  0.73366434    -0.72600
Al31       Al  0.60429680  0.28020324  0.75798770     1.90100
O32         O  0.64526920  0.28622915  0.67623699    -0.71600
O33         O  0.65505265  0.40404417  0.71770176    -0.71500
O34         O  0.60477625  0.35871363  0.66082306    -0.77100
O35         O  0.60528580  0.41332474  0.76314644    -0.75300
O36         O  0.60684847  0.33193197  0.73500796    -1.11500
O37         O  0.56213716  0.35354651  0.80125338    -0.70700
C38         C  0.58859510  0.33207343  0.82192076     1.00100
C39         C  0.62091385  0.25356515  0.68075319     0.96400
Al40       Al  0.64709692  0.34329406  0.69993038     1.55600
O41         O  0.54487752  0.28081711  0.76647253    -0.75300
C42         C  0.63747264  0.42717085  0.74431811     1.00600
C43         C  0.69520075  0.28722894  0.74898257     0.95500
O44         O  0.66123231  0.26755027  0.75575681    -0.80600
O45         O  0.55682631  0.36234114  0.95468004    -0.80100
C46         C  0.63319455  0.31962555  0.09753080     0.99300
O47         O  0.64806767  0.30885463  0.06494954    -0.69200
O48         O  0.58291156  0.27076392  0.03385940    -0.72800
Al49       Al  0.62224596  0.31403088  0.01495253     1.49000
C50         C  0.54442832  0.26943696  0.02249856     0.94500
O51         O  0.50218861  0.34416272  0.05183856    -0.79000
O52         O  0.57640921  0.44328314  0.02772306    -0.72600
Al53       Al  0.53187312  0.35253453  0.00363762     1.90100
O54         O  0.53791843  0.39369713  0.08528144    -0.71600
O55         O  0.65571779  0.40345564  0.04376808    -0.71500
O56         O  0.61039834  0.35322303  0.10073330    -0.77100
O57         O  0.66498359  0.35363603  0.99837408    -0.75300
O58         O  0.58361927  0.35517472  0.02656245    -1.11500
O59         O  0.60522593  0.31039652  0.96036504    -0.70700
C60         C  0.58372788  0.33682710  0.93968837     1.00100
C61         C  0.50530163  0.36926110  0.08085047     0.96400
Al62       Al  0.59497268  0.39549652  0.06156476     1.55600
O63         O  0.53253752  0.29310504  0.99521512    -0.75300
C64         C  0.67882475  0.38586183  0.01714560     1.00600
C65         C  0.53886237  0.44346407  0.01242748     0.95500
O66         O  0.51915649  0.40947106  0.00580937    -0.80600
O67         O  0.35847334  0.63499330  0.04955592    -0.80100
C68         C  0.47633271  0.59091657  0.93013642     0.99300
O69         O  0.48352742  0.58737243  0.96642869    -0.69200
O70         O  0.47160109  0.65623746  0.00482967    -0.72800
Al71       Al  0.44924526  0.60230112  0.01227627     1.49000
C72         C  0.45328740  0.69096909  0.01249221     0.94500
O73         O  0.37352335  0.68183742  0.94967361    -0.79000
O74         O  0.33325954  0.56102559  0.97327901    -0.72600
Al75       Al  0.36734962  0.65632083  0.99899034     1.90100
O76         O  0.35746991  0.62364656  0.91602056    -0.71600
O77         O  0.41802548  0.52630869  0.96436458    -0.71500
O78         O  0.43799025  0.59351991  0.91719105    -0.77100
O79         O  0.43081016  0.54671158  0.02326458    -0.75300
O80         O  0.40155025  0.61280981  0.98560694    -1.11500
O81         O  0.42568946  0.61646463  0.06192140    -0.70700
C82         C  0.38765006  0.62412806  0.07298566     1.00100
C83         C  0.36402978  0.66414988  0.91785296     0.96400
Al84       Al  0.38684195  0.57845181  0.94604356     1.55600
O85         O  0.41285316  0.69395028  0.01588201    -0.75300
C86         C  0.43794077  0.52103055  0.99631900     1.00600
C87         C  0.30483786  0.58808117  0.98503128     0.95500
O88         O  0.31379769  0.62797139  0.98569524    -0.80600
O89         O  0.11418234  0.80508035  0.30651556    -0.80100
C90         C  0.07142498  0.88142092  0.16362741     0.99300
O91         O  0.06061176  0.89624677  0.19621441    -0.69200
O92         O  0.02260577  0.83102690  0.22729813    -0.72800
Al93       Al  0.06581155  0.87042558  0.24621300     1.49000
C94         C  0.02131724  0.79254651  0.23867484     0.94500
O95         O  0.09611197  0.75040657  0.20935961    -0.79000
O96         O  0.19513408  0.82472975  0.23344400    -0.72600
Al97       Al  0.10442913  0.78010815  0.25755460     1.90100
O98         O  0.14558331  0.78620271  0.17589355    -0.71600
O99         O  0.15521945  0.90400028  0.21742943    -0.71500
O100        O  0.10504602  0.85865650  0.16043309    -0.77100
O101        O  0.10535726  0.91321770  0.26279703    -0.75300
O102        O  0.10700991  0.83185313  0.23461643    -1.11500
O103        O  0.06217497  0.85340645  0.30080731    -0.70700
C104        C  0.08862755  0.83195039  0.32149819     1.00100
C105        C  0.12119411  0.75355207  0.18033848     0.96400
Al106      Al  0.14732448  0.84325493  0.19961406     1.55600
O107        O  0.04499901  0.78068822  0.26595913    -0.75300
C108        C  0.13758829  0.92708674  0.24404649     1.00600
C109        C  0.19535254  0.78718554  0.24874456     0.95500
O110        O  0.16137820  0.76746428  0.25539840    -0.80600
O111        O  0.38682474  0.60669955  0.21163331    -0.80100
C112        C  0.34275733  0.72452455  0.33106700     0.99300
O113        O  0.33929678  0.73175821  0.29477582    -0.69200
O114        O  0.40823051  0.71977646  0.25648374    -0.72800
Al115      Al  0.35427413  0.69750752  0.24892959     1.49000
C116        C  0.44292626  0.70142460  0.24876335     0.94500
O117        O  0.43363724  0.62165284  0.31151754    -0.79000
O118        O  0.31280927  0.58152369  0.28779489    -0.72600
Al119      Al  0.40815333  0.61552608  0.26219547     1.90100
O120        O  0.37539621  0.60563085  0.34512577    -0.71600
O121        O  0.27816928  0.66631497  0.29671134    -0.71500
O122        O  0.34532051  0.68617014  0.34398853    -0.77100
O123        O  0.29868040  0.67916544  0.23784697    -0.75300
O124        O  0.36467589  0.64977155  0.27556996    -1.11500
O125        O  0.36848911  0.67397390  0.19927652    -0.70700
C126        C  0.37603429  0.63590884  0.18820840     1.00100
C127        C  0.41591141  0.61213795  0.34331605     0.96400
Al128      Al  0.33025316  0.63506519  0.31508187     1.55600
O129        O  0.44584390  0.66099111  0.24532082    -0.75300
C130        C  0.27295726  0.68627211  0.26476644     1.00600
C131        C  0.33984992  0.55307541  0.27607210     0.95500
O132        O  0.37974999  0.56199282  0.27546704    -0.80600
O133        O  0.85855405  0.13506869  0.54958054    -0.80100
C134        C  0.97626869  0.09089520  0.43009074     0.99300
O135        O  0.98351331  0.08741455  0.46637850    -0.69200
O136        O  0.97163585  0.15632518  0.50471996    -0.72800
Al137      Al  0.94929509  0.10239505  0.51224642     1.49000
C138        C  0.95332337  0.19104560  0.51242593     0.94500
O139        O  0.87350454  0.18187302  0.44967655    -0.79000
O140        O  0.83325748  0.06107538  0.47341747    -0.72600
Al141      Al  0.86737724  0.15638345  0.49900842     1.90100
O142        O  0.85740105  0.12365624  0.41607381    -0.71600
O143        O  0.91800711  0.02634974  0.46443505    -0.71500
O144        O  0.93791246  0.09350030  0.41718109    -0.77100
O145        O  0.93087490  0.04681674  0.52330175    -0.75300
O146        O  0.90156657  0.11287018  0.48561758    -1.11500
O147        O  0.92579793  0.11661058  0.56191277    -0.70700
C148        C  0.88775546  0.12423558  0.57299790     1.00100
C149        C  0.86395634  0.16416485  0.41787799     0.96400
Al150      Al  0.88680307  0.07847496  0.44610139     1.55600
O151        O  0.91289390  0.19401639  0.51585837    -0.75300
C152        C  0.93797929  0.02111412  0.49636693     1.00600
C153        C  0.80484975  0.08813966  0.48517919     0.95500
O154        O  0.81380359  0.12803304  0.48576700    -0.80600
O155        O  0.05705674  0.86254643  0.45425679    -0.80100
C156        C  0.13325512  0.81967740  0.59722068     0.99300
O157        O  0.14802924  0.80879641  0.56463268    -0.69200
O158        O  0.08285336  0.77087136  0.53342080    -0.72800
Al159      Al  0.12230184  0.81408297  0.51460316     1.49000
C160        C  0.04439712  0.76960407  0.52198104     0.94500
O161        O  0.00223997  0.84437000  0.55134668    -0.79000
O162        O  0.07656745  0.94342409  0.52744753    -0.72600
Al163      Al  0.03201564  0.85273914  0.50318391     1.90100
O164        O  0.03801883  0.89377339  0.58491199    -0.71600
O165        O  0.15583815  0.90350935  0.54345230    -0.71500
O166        O  0.11050381  0.85330621  0.60039653    -0.77100
O167        O  0.16514824  0.85362259  0.49811971    -0.75300
O168        O  0.08372931  0.85528729  0.52618782    -1.11500
O169        O  0.10536454  0.81052186  0.45997948    -0.70700
C170        C  0.08390313  0.83696240  0.43927864     1.00100
C171        C  0.00536088  0.86940764  0.58040334     0.96400
Al172      Al  0.09509053  0.89557842  0.56122943     1.55600
O173        O  0.03259665  0.79332457  0.49470691    -0.75300
C174        C  0.17897663  0.88586381  0.51688029     1.00600
C175        C  0.03903507  0.94364439  0.51213143     0.95500
O176        O  0.01936258  0.90966951  0.50538391    -0.80600
O177        O  0.09905742  0.37584551  0.71161263    -0.80100
C178        C  0.14313322  0.25803985  0.83105795     0.99300
O179        O  0.14659092  0.25079994  0.79477056    -0.69200
O180        O  0.07768355  0.26277018  0.75644920    -0.72800
Al181      Al  0.13164257  0.28504304  0.74892147     1.49000
C182        C  0.04297699  0.28111436  0.74875278     0.94500
O183        O  0.05223716  0.36087344  0.81151117    -0.79000
O184        O  0.17306833  0.40103930  0.78777019    -0.72600
Al185      Al  0.07773133  0.36701391  0.76218125     1.90100
O186        O  0.11046563  0.37691118  0.84512382    -0.71600
O187        O  0.20773522  0.31624368  0.79672925    -0.71500
O188        O  0.14057311  0.29639195  0.84397956    -0.77100
O189        O  0.18725300  0.30336492  0.73786471    -0.75300
O190        O  0.12122168  0.33277737  0.77555828    -1.11500
O191        O  0.11745382  0.30858519  0.69926777    -0.70700
C192        C  0.10987511  0.34664247  0.68819324     1.00100
C193        C  0.06995274  0.37036674  0.84332087     0.96400
Al194      Al  0.15563209  0.34749392  0.81507557     1.55600
O195        O  0.04004848  0.32154616  0.74530968    -0.75300
C196        C  0.21296061  0.29626054  0.76480013     1.00600
C197        C  0.14602288  0.42947222  0.77601827     0.95500
O198        O  0.10612256  0.42055405  0.77544911    -0.80600
O199        O  0.37171545  0.17724838  0.80686453    -0.80100
C200        C  0.41458710  0.10100925  0.66393435     0.99300
O201        O  0.42543550  0.08622888  0.69652917    -0.69200
O202        O  0.46336647  0.15143242  0.72768980    -0.72800
Al203      Al  0.42016442  0.11199446  0.74653775     1.49000
C204        C  0.46462531  0.18989916  0.73910052     0.94500
O205        O  0.38984194  0.23206154  0.70978454    -0.79000
O206        O  0.29080768  0.15773150  0.73366234    -0.72600
Al207      Al  0.38149814  0.20228489  0.75793796     1.90100
O208        O  0.34046745  0.19625905  0.67620720    -0.71600
O209        O  0.33075872  0.07844890  0.71768031    -0.71500
O210        O  0.38097208  0.12378125  0.66073901    -0.77100
O211        O  0.38062224  0.06915776  0.76304356    -0.75300
O212        O  0.37895594  0.15056712  0.73494216    -1.11500
O213        O  0.42375558  0.12896027  0.80114818    -0.70700
C214        C  0.39731508  0.15041942  0.82184492     1.00100
C215        C  0.36480836  0.22893120  0.68072862     0.96400
Al216      Al  0.33867530  0.13919696  0.69989462     1.55600
O217        O  0.44092247  0.20171159  0.76638329    -0.75300
C218        C  0.34839969  0.05531518  0.74426157     1.00600
C219        C  0.29057671  0.19526095  0.74899063     0.95500
O220        O  0.32455259  0.21492832  0.75575495    -0.80600
O221        O  0.92901146  0.61993410  0.45426111    -0.80100
C222        C  0.85275870  0.66301617  0.59712951     0.99300
O223        O  0.83797962  0.67383567  0.56452419    -0.69200
O224        O  0.90313910  0.71173579  0.53327289    -0.72800
Al225      Al  0.86372011  0.66847682  0.51450896     1.49000
C226        C  0.94160812  0.71298486  0.52187076     0.94500
O227        O  0.98378286  0.63828936  0.55133858    -0.79000
O228        O  0.90945994  0.53918666  0.52752445    -0.72600
Al229      Al  0.95403219  0.62983266  0.50318091     1.90100
O230        O  0.94801088  0.58891044  0.58494088    -0.71600
O231        O  0.83019535  0.57912188  0.54351571    -0.71500
O232        O  0.87553470  0.62941032  0.60035994    -0.77100
O233        O  0.82089258  0.62889160  0.49807492    -0.75300
O234        O  0.90230683  0.62730963  0.52616738    -1.11500
O235        O  0.88067384  0.67194344  0.45989324    -0.70700
C236        C  0.90213838  0.64546344  0.43924253     1.00100
C237        C  0.98065586  0.61328811  0.58042065     0.96400
Al238      Al  0.89094519  0.58707477  0.56126016     1.55600
O239        O  0.95343152  0.68923971  0.49462320    -0.75300
C240        C  0.80705415  0.59670944  0.51691465     1.00600
C241        C  0.94699314  0.53893658  0.51220932     0.95500
O242        O  0.96669817  0.57289767  0.50546699    -0.80600
O243        O  0.12746890  0.34752611  0.54954100    -0.80100
C244        C  0.00958602  0.39145518  0.43009318     0.99300
O245        O  0.00237395  0.39495958  0.46638261    -0.69200
O246        O  0.01436455  0.32605603  0.50471696    -0.72800
Al247      Al  0.03664287  0.38001616  0.51222635     1.49000
C248        C  0.03271178  0.29136722  0.51247919     0.94500
O249        O  0.11241137  0.30052363  0.44971948    -0.79000
O250        O  0.15265536  0.42136663  0.47328905    -0.72600
Al251      Al  0.11860046  0.32609628  0.49900861     1.90100
O252        O  0.12842903  0.35870566  0.41602096    -0.71600
O253        O  0.06787070  0.45605884  0.46436614    -0.71500
O254        O  0.04793324  0.38886733  0.41716191    -0.77100
O255        O  0.05500849  0.43561567  0.52325064    -0.75300
O256        O  0.08436504  0.36956771  0.48558712    -1.11500
O257        O  0.06018640  0.36584100  0.56188524    -0.70700
C258        C  0.09825272  0.35831312  0.57296114     1.00100
C259        C  0.12187123  0.31819725  0.41787979     0.96400
Al260      Al  0.09907066  0.40392736  0.44603332     1.55600
O261        O  0.07313907  0.28845654  0.51596849    -0.75300
C262        C  0.04791211  0.46131085  0.49630451     1.00600
C263        C  0.18108392  0.39431716  0.48504462     0.95500
O264        O  0.17213992  0.35442614  0.48565613    -0.80600
O265        O  0.62747955  0.84734671  0.04948128    -0.80100
C266        C  0.50955075  0.89149861  0.93013157     0.99300
O267        O  0.50233513  0.89491093  0.96642984    -0.69200
O268        O  0.51435031  0.82599480  0.00474737    -0.72800
Al269      Al  0.53663075  0.87995546  0.01226125     1.49000
C270        C  0.53270450  0.79128740  0.01242159     0.94500
O271        O  0.61239033  0.80060759  0.94958008    -0.79000
O272        O  0.65260111  0.92140940  0.97333090    -0.72600
Al273      Al  0.61858801  0.82605718  0.99891068     1.90100
O274        O  0.62841652  0.85886122  0.91598918    -0.71600
O275        O  0.56779527  0.95608242  0.96445592    -0.71500
O276        O  0.54789641  0.88896105  0.91719023    -0.77100
O277        O  0.55496026  0.93556038  0.02331536    -0.75300
O278        O  0.58434023  0.86955639  0.98558234    -1.11500
O279        O  0.56023716  0.86575403  0.06189571    -0.70700
C280        C  0.59830467  0.85815584  0.07293451     1.00100
C281        C  0.62188263  0.81834862  0.91778202     0.96400
Al282      Al  0.59902421  0.90399634  0.94606878     1.55600
O283        O  0.57314121  0.78836079  0.01581192    -0.75300
C284        C  0.54782181  0.96127387  0.99639215     1.00600
C285        C  0.68105148  0.89434701  0.98501851     0.95500
O286        O  0.67211707  0.85444987  0.98560130    -0.80600
O287        O  0.42910044  0.12007029  0.95460664    -0.80100
C288        C  0.35265836  0.16279731  0.09746152     0.99300
O289        O  0.33792151  0.17369389  0.06486409    -0.69200
O290        O  0.40322616  0.21161850  0.03385764    -0.72800
Al291      Al  0.36377501  0.16848573  0.01488807     1.49000
C292        C  0.44171933  0.21285467  0.02251393     0.94500
O293        O  0.48373237  0.13797714  0.05180233    -0.79000
O294        O  0.40931652  0.03907212  0.02762806    -0.72600
Al295      Al  0.45404884  0.12974741  0.00358565     1.90100
O296        O  0.44782764  0.08855872  0.08523937    -0.71600
O297        O  0.33007400  0.07906796  0.04356772    -0.71500
O298        O  0.37537431  0.12914184  0.10065029    -0.77100
O299        O  0.32092426  0.12901442  0.99825714    -0.75300
O300        O  0.40228122  0.12721925  0.02648875    -1.11500
O301        O  0.38084232  0.17213999  0.96030897    -0.70700
C302        C  0.40228005  0.14567487  0.93962070     1.00100
C303        C  0.48052533  0.11289179  0.08081695     0.96400
Al304      Al  0.39079759  0.08688687  0.06145702     1.55600
O305        O  0.45355988  0.18918338  0.99521923    -0.75300
C306        C  0.30701697  0.09676310  0.01696201     1.00600
C307        C  0.44686873  0.03882669  0.01234754     0.95500
O308        O  0.46661633  0.07278702  0.00570935    -0.80600
O309        O  0.87179862  0.67722848  0.30649049    -0.80100
C310        C  0.91457483  0.60091835  0.16360236     0.99300
O311        O  0.92544785  0.58613666  0.19619036    -0.69200
O312        O  0.96341923  0.65133620  0.22731205    -0.72800
Al313      Al  0.92021307  0.61191460  0.24619215     1.49000
C314        C  0.96469023  0.68981227  0.23869608     0.94500
O315        O  0.88991211  0.73194200  0.20934569    -0.79000
O316        O  0.79088399  0.65760960  0.23342566    -0.72600
Al317      Al  0.88157863  0.70222340  0.25753967     1.90100
O318        O  0.84045034  0.69614437  0.17586785    -0.71600
O319        O  0.83078159  0.57834872  0.21740792    -0.71500
O320        O  0.88094201  0.62366502  0.16041580    -0.77100
O321        O  0.88067964  0.56909296  0.26273896    -0.75300
O322        O  0.87900879  0.65048261  0.23459297    -1.11500
O323        O  0.92380609  0.62889994  0.30078994    -0.70700
C324        C  0.89734250  0.65034498  0.32147339     1.00100
C325        C  0.86483802  0.72879695  0.18031646     0.96400
Al326      Al  0.83868777  0.63908664  0.19959381     1.55600
O327        O  0.94100135  0.70164493  0.26598047    -0.75300
C328        C  0.84843152  0.55524297  0.24400203     1.00600
C329        C  0.79067045  0.69514779  0.24872940     0.95500
O330        O  0.82464293  0.71487458  0.25536341    -0.80600
O331        O  0.59927521  0.87562476  0.21159717    -0.80100
C332        C  0.64335537  0.75773070  0.33100496     0.99300
O333        O  0.64685327  0.75053199  0.29471064    -0.69200
O334        O  0.57797112  0.76248718  0.25634710    -0.72800
Al335      Al  0.63190890  0.78482144  0.24886785     1.49000
C336        C  0.54325234  0.78081364  0.24866259     0.94500
O337        O  0.55241711  0.86053003  0.31146904    -0.79000
O338        O  0.67321639  0.90082655  0.28785747    -0.72600
Al339      Al  0.57792932  0.86673081  0.26215748     1.90100
O340        O  0.61061592  0.87657452  0.34512423    -0.71600
O341        O  0.70794420  0.81604491  0.29674184    -0.71500
O342        O  0.64077190  0.79607393  0.34394671    -0.77100
O343        O  0.68749352  0.80323988  0.23785821    -0.75300
O344        O  0.62143400  0.83252020  0.27553671    -1.11500
O345        O  0.61772618  0.80838911  0.19921942    -0.70700
C346        C  0.61010847  0.84644351  0.18815906     1.00100
C347        C  0.57011124  0.87001750  0.34328947     0.96400
Al348      Al  0.65581031  0.84722484  0.31508847     1.55600
O349        O  0.54029438  0.82124589  0.24524168    -0.75300
C350        C  0.71318275  0.79610164  0.26479709     1.00600
C351        C  0.64614712  0.92925395  0.27613581     0.95500
O352        O  0.60626214  0.92027966  0.27548077    -0.80600
O353        O  0.85851635  0.84749403  0.96140996    -0.80100
C354        C  0.97635427  0.89145196  0.08088774     0.99300
O355        O  0.98357455  0.89496393  0.04459897    -0.69200
O356        O  0.97160321  0.82607303  0.00624157    -0.72800
Al357      Al  0.94931782  0.88003272  0.99874293     1.49000
C358        C  0.95326206  0.79138184  0.99848197     0.94500
O359        O  0.87351336  0.80055339  0.06126838    -0.79000
O360        O  0.83329716  0.92139109  0.03766241    -0.72600
Al361      Al  0.86735904  0.82610268  0.01196080     1.90100
O362        O  0.85748055  0.85874745  0.09493454    -0.71600
O363        O  0.91808311  0.95606951  0.04659695    -0.71500
O364        O  0.93800153  0.88887273  0.09381070    -0.77100
O365        O  0.93095892  0.93563479  0.98771556    -0.75300
O366        O  0.90158721  0.86958056  0.02537529    -1.11500
O367        O  0.92578599  0.86586633  0.94907884    -0.70700
C368        C  0.88773118  0.85829892  0.93799359     1.00100
C369        C  0.86401882  0.81823831  0.09309223     0.96400
Al370      Al  0.88687182  0.90394576  0.06492376     1.55600
O371        O  0.91283139  0.78845490  0.99503625    -0.75300
C372        C  0.93804446  0.96132909  0.01466196     1.00600
C373        C  0.80486329  0.89434300  0.02591691     0.95500
O374        O  0.81381410  0.85445251  0.02527089    -0.80600
O375        O  0.05697388  0.12006314  0.05672234    -0.80100
C376        C  0.13313058  0.16304272  0.91381349     0.99300
O377        O  0.14794239  0.17386552  0.94640119    -0.69200
O378        O  0.08277587  0.21179472  0.97761871    -0.72800
Al379      Al  0.12220732  0.16856262  0.99641524     1.49000
C380        C  0.04430955  0.21304813  0.98903208     0.94500
O381        O  0.00211579  0.13830160  0.95967036    -0.79000
O382        O  0.07647734  0.03924514  0.98348732    -0.72600
Al383      Al  0.03191116  0.12990544  0.00781458     1.90100
O384        O  0.03789934  0.08893638  0.92606641    -0.71600
O385        O  0.15573813  0.07918284  0.96748325    -0.71500
O386        O  0.11035793  0.12943481  0.91060617    -0.77100
O387        O  0.16503589  0.12899907  0.01288022    -0.75300
O388        O  0.08362115  0.12737615  0.98480375    -1.11500
O389        O  0.10527656  0.17209461  0.05102627    -0.70700
C390        C  0.08385501  0.14560629  0.07170472     1.00100
C391        C  0.00523939  0.11329335  0.93059478     0.96400
Al392      Al  0.09497566  0.08712003  0.94973295     1.55600
O393        O  0.03249900  0.18932628  0.01630536    -0.75300
C394        C  0.17887446  0.09679344  0.99407783     1.00600
C395        C  0.03895554  0.03899742  0.99882324     0.95500
O396        O  0.01926592  0.07296096  0.00559045    -0.80600
O397        O  0.11428862  0.17719626  0.20448576    -0.80100
C398        C  0.07127994  0.10085275  0.34731475     0.99300
O399        O  0.06045696  0.08607209  0.31471241    -0.69200
O400        O  0.02253885  0.15125795  0.28352313    -0.72800
Al401      Al  0.06578029  0.11185569  0.26470977     1.49000
C402        C  0.02127330  0.18973345  0.27213704     0.94500
O403        O  0.09599757  0.23188222  0.30160719    -0.79000
O404        O  0.19507941  0.15756739  0.27766522    -0.72600
Al405      Al  0.10442070  0.20217407  0.25342332     1.90100
O406        O  0.14540699  0.19608357  0.33515114    -0.71600
O407        O  0.15516548  0.07829354  0.29361405    -0.71500
O408        O  0.10490604  0.12359831  0.35054166    -0.77100
O409        O  0.10534651  0.06904583  0.24821292    -0.75300
O410        O  0.10695773  0.15042838  0.27636936    -1.11500
O411        O  0.06227732  0.12885884  0.21011053    -0.70700
C412        C  0.08875438  0.15033382  0.18946344     1.00100
C413        C  0.12102410  0.22873601  0.33067126     0.96400
Al414      Al  0.14722045  0.13903003  0.31142391     1.55600
O415        O  0.04501397  0.20158998  0.24489709    -0.75300
C416        C  0.13756353  0.05519318  0.26699173     1.00600
C417        C  0.19531156  0.19511176  0.26237200     0.95500
O418        O  0.16134761  0.21482970  0.25568200    -0.80600
O419        O  0.38659212  0.37560774  0.29973400    -0.80100
C420        C  0.34258569  0.25778924  0.18025134     0.99300
O421        O  0.33907054  0.25057143  0.21654067    -0.69200
O422        O  0.40795737  0.26250725  0.25489905    -0.72800
Al423      Al  0.35401822  0.28482625  0.26239939     1.49000
C424        C  0.44266026  0.28083188  0.26264587     0.94500
O425        O  0.43353196  0.36058704  0.19988524    -0.79000
O426        O  0.31271435  0.40085640  0.22344821    -0.72600
Al427      Al  0.40798172  0.36675393  0.24918383     1.90100
O428        O  0.37535180  0.37663791  0.16620117    -0.71600
O429        O  0.27799657  0.31608849  0.21453094    -0.71500
O430        O  0.34518565  0.29613985  0.16732636    -0.77100
O431        O  0.29843496  0.30324446  0.27341533    -0.75300
O432        O  0.36449356  0.33254706  0.23576210    -1.11500
O433        O  0.36820857  0.30834203  0.31206729    -0.70700
C434        C  0.37580668  0.34638962  0.32315622     1.00100
C435        C  0.41585613  0.37008063  0.16805607     0.96400
Al436      Al  0.33013647  0.34727445  0.19620450     1.55600
O437        O  0.44560574  0.32126006  0.26611032    -0.75300
C438        C  0.27275262  0.29612407  0.24646730     1.00600
C439        C  0.33977351  0.42927762  0.23519336     0.95500
O440        O  0.37965836  0.42030795  0.23586240    -0.80600
O441        O  0.55682153  0.62004061  0.55668749    -0.80100
C442        C  0.63324117  0.66274635  0.41379815     0.99300
O443        O  0.64800071  0.67362307  0.44639334    -0.69200
O444        O  0.58275702  0.71159935  0.47744690    -0.72800
Al445      Al  0.62217295  0.66841729  0.49638683     1.49000
C446        C  0.54427311  0.71287126  0.48881071     0.94500
O447        O  0.50218083  0.63804943  0.45951125    -0.79000
O448        O  0.57650591  0.53905649  0.48363442    -0.72600
Al449      Al  0.53186951  0.62976466  0.50771468     1.90100
O450        O  0.53800920  0.58859012  0.42606193    -0.71600
O451        O  0.65577911  0.57900072  0.46764184    -0.71500
O452        O  0.61048183  0.62912028  0.41061466    -0.77100
O453        O  0.66499348  0.62889636  0.51298255    -0.75300
O454        O  0.58362302  0.62719461  0.48479123    -1.11500
O455        O  0.60513202  0.67206229  0.55098246    -0.70700
C456        C  0.58365281  0.64562993  0.57167652     1.00100
C457        C  0.50534066  0.61295380  0.43050344     0.96400
Al458      Al  0.59504830  0.58686711  0.44980503     1.55600
O459        O  0.53242252  0.68919595  0.51610102    -0.75300
C460        C  0.67887319  0.59666734  0.49423284     1.00600
C461        C  0.53895442  0.53883988  0.49891806     0.95500
O462        O  0.51924240  0.57281644  0.50557466    -0.80600
O463        O  0.35846136  0.34729299  0.46183052    -0.80100
C464        C  0.47623194  0.39156567  0.58124610     0.99300
O465        O  0.48347832  0.39499867  0.54495456    -0.69200
O466        O  0.47155021  0.32603197  0.50671589    -0.72800
Al467      Al  0.44924412  0.37996306  0.49910969     1.49000
C468        C  0.45322567  0.29130916  0.49904504     0.94500
O469        O  0.37345767  0.30061747  0.56176338    -0.79000
O470        O  0.33322699  0.42139141  0.53790468    -0.72600
Al471      Al  0.36730286  0.32603711  0.51241773     1.90100
O472        O  0.35737446  0.35887766  0.59531456    -0.71600
O473        O  0.41800595  0.45610133  0.54682472    -0.71500
O474        O  0.43787659  0.38900576  0.59415834    -0.77100
O475        O  0.43087155  0.43553896  0.48798182    -0.75300
O476        O  0.40151352  0.36955737  0.52575201    -1.11500
O477        O  0.42571770  0.36568008  0.44946002    -0.70700
C478        C  0.38766116  0.35807443  0.43839290     1.00100
C479        C  0.36394268  0.31836874  0.59354773     0.96400
Al480      Al  0.38677629  0.40401301  0.56522975     1.55600
O481        O  0.41279629  0.28835820  0.49559106    -0.75300
C482        C  0.43797739  0.46128508  0.51488387     1.00600
C483        C  0.30480406  0.39431766  0.52618807     0.95500
O484        O  0.31374361  0.35441981  0.52565498    -0.80600
O485        O  0.88688013  0.87579332  0.79932644    -0.80100
C486        C  0.84269276  0.75799217  0.67990667     0.99300
O487        O  0.83923971  0.75075377  0.71619800    -0.69200
O488        O  0.90817470  0.76269218  0.75450579    -0.72800
Al489      Al  0.85422699  0.78499793  0.76204365     1.49000
C490        C  0.94288853  0.78102037  0.76220660     0.94500
O491        O  0.93364441  0.86076779  0.69941797    -0.79000
O492        O  0.81285057  0.90101970  0.72319611    -0.72600
Al493      Al  0.90817768  0.86693848  0.74875259     1.90100
O494        O  0.87541115  0.87684423  0.66582420    -0.71600
O495        O  0.77812985  0.81623738  0.71425867    -0.71500
O496        O  0.84526107  0.79634576  0.66698536    -0.77100
O497        O  0.79863296  0.80335232  0.77311772    -0.75300
O498        O  0.86466221  0.83272454  0.73539696    -1.11500
O499        O  0.86845036  0.80854386  0.81169156    -0.70700
C500        C  0.87606262  0.84659767  0.82275787     1.00100
C501        C  0.91591822  0.87026913  0.66761483     0.96400
Al502      Al  0.83024236  0.84745790  0.69589016     1.55600
O503        O  0.94583821  0.82145199  0.76562930    -0.75300
C504        C  0.77290436  0.79626659  0.74619595     1.00600
C505        C  0.83991800  0.92944042  0.73493003     0.95500
O506        O  0.87981437  0.92049885  0.73547782    -0.80600
O507        O  0.61403595  0.67734877  0.70444197    -0.80100
C508        C  0.57136521  0.60102541  0.84737839     0.99300
O509        O  0.56052332  0.58620724  0.81479591    -0.69200
O510        O  0.52249050  0.65138883  0.78368881    -0.72800
Al511      Al  0.56571080  0.61199673  0.76478218     1.49000
C512        C  0.52119246  0.68986562  0.77230435     0.94500
O513        O  0.59596238  0.73204916  0.80157751    -0.79000
O514        O  0.69503029  0.65779453  0.77750983    -0.72600
Al515      Al  0.60428315  0.70233175  0.75339454     1.90100
O516        O  0.64545910  0.69629431  0.83504976    -0.71600
O517        O  0.65514668  0.57848549  0.79357078    -0.71500
O518        O  0.60497522  0.62381145  0.85055203    -0.77100
O519        O  0.60526866  0.56919710  0.74822537    -0.75300
O520        O  0.60689838  0.65059584  0.77635350    -1.11500
O521        O  0.56206094  0.62898951  0.71017275    -0.70700
C522        C  0.58847297  0.65048114  0.68946781     1.00100
C523        C  0.62105963  0.72893372  0.83059002     0.96400
Al524      Al  0.64722971  0.63923637  0.81135353     1.55600
O525        O  0.54484871  0.70170721  0.74499766    -0.75300
C526        C  0.63750002  0.55535285  0.76699465     1.00600
C527        C  0.69522386  0.69534001  0.76220375     0.95500
O528        O  0.66123023  0.71502342  0.75553593    -0.80600
O529        O  0.87161622  0.30514399  0.20444551    -0.80100
C530        C  0.91456809  0.38141423  0.34733127     0.99300
O531        O  0.92544298  0.39616523  0.31473335    -0.69200
O532        O  0.96330702  0.33092438  0.28358401    -0.72800
Al533      Al  0.92013783  0.37039191  0.26473333     1.49000
C534        C  0.96453914  0.29245256  0.27218600     0.94500
O535        O  0.88971784  0.25039012  0.30156969    -0.79000
O536        O  0.79075296  0.32481240  0.27760877    -0.72600
Al537      Al  0.88138873  0.28013131  0.25338912     1.90100
O538        O  0.84035753  0.28625277  0.33511223    -0.71600
O539        O  0.83074677  0.40404226  0.29355148    -0.71500
O540        O  0.88091488  0.35870206  0.35053429    -0.77100
O541        O  0.88064082  0.41325811  0.24820891    -0.75300
O542        O  0.87889584  0.33186874  0.27635053    -1.11500
O543        O  0.92368845  0.35340355  0.21013292    -0.70700
C544        C  0.89720190  0.33198073  0.18945376     1.00100
C545        C  0.86469385  0.25356800  0.33063012     0.96400
Al546      Al  0.83861695  0.34330523  0.31138171     1.55600
O547        O  0.94080541  0.28063403  0.24492773    -0.75300
C548        C  0.84840492  0.42713084  0.26694933     1.00600
C549        C  0.79048833  0.28727651  0.26230447     0.95500
O550        O  0.82443915  0.26754806  0.25558778    -0.80600
O551        O  0.59908436  0.10674466  0.29974614    -0.80100
C552        C  0.64309241  0.22452962  0.18024659     0.99300
O553        O  0.64655807  0.23176857  0.21653431    -0.69200
O554        O  0.57766868  0.21979497  0.25488375    -0.72800
Al555      Al  0.63163052  0.19753044  0.26239727     1.49000
C556        C  0.54297425  0.20144107  0.26260324     0.94500
O557        O  0.55222609  0.12163241  0.19985731    -0.79000
O558        O  0.67307236  0.08152742  0.22354066    -0.72600
Al559      Al  0.57773920  0.11554062  0.24918066     1.90100
O560        O  0.61045111  0.10561828  0.16623002    -0.71600
O561        O  0.70770321  0.16632388  0.21457273    -0.71500
O562        O  0.64052419  0.18617213  0.16733259    -0.77100
O563        O  0.68723773  0.17920002  0.27344132    -0.75300
O564        O  0.62120913  0.14978481  0.23577458    -1.11500
O565        O  0.61746577  0.17401310  0.31206325    -0.70700
C566        C  0.60990609  0.13595896  0.32315329     1.00100
C567        C  0.56993387  0.11210859  0.16805270     0.96400
Al568      Al  0.65560774  0.13506728  0.19624690     1.55600
O569        O  0.54005274  0.16100833  0.26603995    -0.75300
C570        C  0.71292931  0.18631004  0.24649754     1.00600
C571        C  0.64604194  0.05308108  0.23529313     0.95500
O572        O  0.60614361  0.06200293  0.23593312    -0.80600
O573        O  0.92884132  0.36255125  0.05671023    -0.80100
C574        C  0.85259390  0.31970158  0.91378124     0.99300
O575        O  0.83782108  0.30884013  0.94637402    -0.69200
O576        O  0.90305544  0.27091688  0.97751521    -0.72800
Al577      Al  0.86360288  0.31409881  0.99637851     1.49000
C578        C  0.94152147  0.26965897  0.98893562     0.94500
O579        O  0.98365560  0.34447486  0.95960521    -0.79000
O580        O  0.90928181  0.44346729  0.98352528    -0.72600
Al581      Al  0.95387784  0.35279055  0.00777510     1.90100
O582        O  0.94781919  0.39384011  0.92604033    -0.71600
O583        O  0.83001980  0.40352792  0.96758277    -0.71500
O584        O  0.87533987  0.35333347  0.91059016    -0.77100
O585        O  0.82076702  0.35362103  0.01291380    -0.75300
O586        O  0.90215596  0.35532350  0.98478671    -1.11500
O587        O  0.88057683  0.31049169  0.05098208    -0.70700
C588        C  0.90200855  0.33694887  0.07168364     1.00100
C589        C  0.98050356  0.36950625  0.93054321     0.96400
Al590      Al  0.89075816  0.39561655  0.94975436     1.55600
O591        O  0.95333150  0.29336782  0.01621381    -0.75300
C592        C  0.80691966  0.38587857  0.99418381     1.00600
C593        C  0.94680799  0.44369709  0.99885113     0.95500
O594        O  0.96649047  0.40972848  0.00560254    -0.80600
O595        O  0.12743254  0.63502127  0.96143340    -0.80100
C596        C  0.00957329  0.59094502  0.08083904     0.99300
O597        O  0.00235803  0.58747859  0.04454570    -0.69200
O598        O  0.01431748  0.65636495  0.00618368    -0.72800
Al599      Al  0.03662814  0.60241632  0.99870086     1.49000
C600        C  0.03265555  0.69107141  0.99847525     0.94500
O601        O  0.11239616  0.68186139  0.06130767    -0.79000
O602        O  0.15260619  0.56104137  0.03763829    -0.72600
Al603      Al  0.11856373  0.65636026  0.01198867     1.90100
O604        O  0.12844475  0.62363847  0.09493378    -0.71600
O605        O  0.06783567  0.52635827  0.04655925    -0.71500
O606        O  0.04791968  0.59352214  0.09377718    -0.77100
O607        O  0.05501236  0.54681996  0.98768190    -0.75300
O608        O  0.08433747  0.61286717  0.02536378    -1.11500
O609        O  0.06019031  0.61659220  0.94905370    -0.70700
C610        C  0.09825052  0.62418333  0.93799933     1.00100
C611        C  0.12191929  0.66415084  0.09311420     0.96400
Al612      Al  0.09904608  0.57846989  0.06490037     1.55600
O613        O  0.07308998  0.69401819  0.99507740    -0.75300
C614        C  0.04787337  0.52113163  0.01462292     1.00600
C615        C  0.18104227  0.58809539  0.02591301     0.95500
O616        O  0.17210322  0.62799070  0.02529378    -0.80600
O617        O  0.62748836  0.13505323  0.46182148    -0.80100
C618        C  0.50960949  0.09086336  0.58118919     0.99300
O619        O  0.50241813  0.08735681  0.54489452    -0.69200
O620        O  0.51435669  0.15627054  0.50657824    -0.72800
Al621      Al  0.53670399  0.10234587  0.49906903     1.49000
C622        C  0.53267175  0.19100988  0.49894658     0.94500
O623        O  0.61240508  0.18182402  0.56172316    -0.79000
O624        O  0.65270127  0.06103894  0.53803185    -0.72600
Al625      Al  0.61860111  0.15634717  0.51239632     1.90100
O626        O  0.62844684  0.12360956  0.59535348    -0.71600
O627        O  0.56793019  0.02629513  0.54691031    -0.71500
O628        O  0.54794988  0.09344965  0.59414008    -0.77100
O629        O  0.55513393  0.04676958  0.48802865    -0.75300
O630        O  0.58439847  0.11282220  0.52574759    -1.11500
O631        O  0.56026270  0.11657237  0.44943759    -0.70700
C632        C  0.59830985  0.12421819  0.43838136     1.00100
C633        C  0.62186512  0.16411416  0.59354320     0.96400
Al634      Al  0.59910471  0.07842606  0.56528339     1.55600
O635        O  0.57310210  0.19398768  0.49552283    -0.75300
C636        C  0.54800822  0.02105519  0.51495250     1.00600
C637        C  0.68111645  0.08810919  0.52628897     0.95500
O638        O  0.67215662  0.12799990  0.52568725    -0.80600
O639        O  0.42912146  0.86238420  0.55666895    -0.80100
C640        C  0.35275781  0.81956721  0.41381094     0.99300
O641        O  0.33792032  0.80878174  0.44640364    -0.69200
O642        O  0.40307443  0.77074706  0.47754143    -0.72800
Al643      Al  0.36372294  0.81401563  0.49640706     1.49000
C644        C  0.44155901  0.76944830  0.48889878     0.94500
O645        O  0.48378544  0.84415345  0.45952827    -0.79000
O646        O  0.40954672  0.94327309  0.48354317    -0.72600
Al647      Al  0.45408564  0.85255072  0.50771628     1.90100
O648        O  0.44804702  0.89364027  0.42603101    -0.71600
O649        O  0.33024676  0.90341552  0.46751533    -0.71500
O650        O  0.37555878  0.85316001  0.41059597    -0.77100
O651        O  0.32096160  0.85362359  0.51293773    -0.75300
O652        O  0.40234298  0.85516102  0.48477506    -1.11500
O653        O  0.38073004  0.81043042  0.55100626    -0.70700
C654        C  0.40223158  0.83686482  0.57167555     1.00100
C655        C  0.48067171  0.86922171  0.43049343     0.96400
Al656      Al  0.39099044  0.89545420  0.44973847     1.55600
O657        O  0.45343327  0.79312681  0.51617784    -0.75300
C658        C  0.30712359  0.88583005  0.49413163     1.00600
C659        C  0.44708902  0.94347169  0.49884825     0.95500
O660        O  0.46679103  0.90948624  0.50550636    -0.80600
O661        O  0.37184893  0.80514965  0.70444267    -0.80100
C662        C  0.41458278  0.88150424  0.84733408     0.99300
O663        O  0.42542452  0.89630760  0.81474445    -0.69200
O664        O  0.46344508  0.83111969  0.78363785    -0.72800
Al665      Al  0.42021207  0.87050646  0.76474145     1.49000
C666        C  0.46472961  0.79263743  0.77226942     0.94500
O667        O  0.38998035  0.75044670  0.80159386    -0.79000
O668        O  0.29091943  0.82473203  0.77754347    -0.72600
Al669      Al  0.38163522  0.78016721  0.75339935     1.90100
O670        O  0.34051338  0.78622406  0.83507692    -0.71600
O671        O  0.33079492  0.90401881  0.79356196    -0.71500
O672        O  0.38098351  0.85871189  0.85052391    -0.77100
O673        O  0.38063864  0.91329485  0.74818569    -0.75300
O674        O  0.37903640  0.83190782  0.77634564    -1.11500
O675        O  0.42383025  0.85350558  0.71014283    -0.70700
C676        C  0.39739426  0.83202823  0.68945470     1.00100
C677        C  0.36490696  0.75357963  0.83062330     0.96400
Al678      Al  0.33872464  0.84327834  0.81135851     1.55600
O679        O  0.44106328  0.78079163  0.74497181    -0.75300
C680        C  0.34841810  0.92714117  0.76696561     1.00600
C681        C  0.29071612  0.78719086  0.76224372     0.95500
O682        O  0.32469737  0.76749007  0.75557423    -0.80600
O683        O  0.09918009  0.60673695  0.79933645    -0.80100
C684        C  0.14331581  0.72469459  0.68001256     0.99300
O685        O  0.14682413  0.73187321  0.71631054    -0.69200
O686        O  0.07792751  0.71991446  0.75466086    -0.72800
Al687      Al  0.13186032  0.69755888  0.76213383     1.49000
C688        C  0.04319792  0.70159235  0.76231576     0.94500
O689        O  0.05236288  0.62191746  0.69946474    -0.79000
O690        O  0.17315505  0.58159709  0.72312886    -0.72600
Al691      Al  0.07785590  0.61567344  0.74878080     1.90100
O692        O  0.11056997  0.60585972  0.66583125    -0.71600
O693        O  0.20788576  0.66635967  0.71425194    -0.71500
O694        O  0.14071916  0.68635956  0.66705201    -0.77100
O695        O  0.18744240  0.67912043  0.77314536    -0.75300
O696        O  0.12137318  0.64988443  0.73543628    -1.11500
O697        O  0.11766243  0.67395479  0.81175963    -0.70700
C698        C  0.11002777  0.63589422  0.82279135     1.00100
C699        C  0.07006963  0.61244518  0.66764744     0.96400
Al700      Al  0.15575591  0.63519572  0.69589000     1.55600
O701        O  0.04022567  0.66115816  0.76570999    -0.75300
C702        C  0.21314216  0.68625990  0.74621488     1.00600
C703        C  0.14608500  0.55317599  0.73485919     0.95500
O704        O  0.10619276  0.56212846  0.73543988    -0.80600
C705        C  0.23687602  0.72644488  0.74828101    -0.11500
C706        C  0.25373804  0.76113931  0.75420450    -0.13100
C707        C  0.39821199  0.83653111  0.61307546    -0.11500
C708        C  0.39774950  0.83606506  0.64805586    -0.13100
C709        C  0.50782363  0.99731395  0.51288189    -0.11500
C710        C  0.47313406  0.98044841  0.50692675    -0.13100
C711        C  0.10759200  0.62296311  0.89764529    -0.11500
C712        C  0.11119576  0.62653481  0.86314401    -0.13100
C713        C  0.97289053  0.48067887  0.00678538    -0.11500
C714        C  0.00763001  0.49748527  0.01262552    -0.13100
C715        C  0.61115711  0.12665688  0.36351421    -0.11500
C716        C  0.60762685  0.12306635  0.39802145    -0.13100
C717        C  0.89753880  0.33603576  0.14805859    -0.11500
C718        C  0.89798840  0.33654260  0.11308078    -0.13100
C719        C  0.73661910  0.22652993  0.24848939    -0.11500
C720        C  0.75347677  0.26124210  0.25434194    -0.13100
C721        C  0.49893203  0.72294267  0.79225151    -0.11500
C722        C  0.48697551  0.75956111  0.79223621    -0.13100
C723        C  0.97905428  0.75440729  0.76690930    -0.11500
C724        C  0.00702931  0.72821277  0.76695523    -0.13100
C725        C  0.74911484  0.75609915  0.74824646    -0.11500
C726        C  0.73220221  0.72141783  0.75416024    -0.13100
C727        C  0.50604656  0.22717761  0.49435406    -0.11500
C728        C  0.47984152  0.25514287  0.49439683    -0.13100
C729        C  0.47460483  0.74716791  0.46892982    -0.11500
C730        C  0.51120633  0.73516776  0.46888561    -0.13100
C731        C  0.58763641  0.64602342  0.61308297    -0.11500
C732        C  0.58808159  0.64647457  0.64806354    -0.13100
C733        C  0.51289182  0.50185585  0.50693975    -0.11500
C734        C  0.47818296  0.48500159  0.51283569    -0.13100
C735        C  0.50679652  0.22802865  0.26730563    -0.11500
C736        C  0.47882301  0.25422003  0.26732715    -0.13100
C737        C  0.37468660  0.35566560  0.36352847    -0.11500
C738        C  0.37833135  0.35923153  0.39803070    -0.13100
C739        C  0.99892316  0.22278660  0.29201914    -0.11500
C740        C  0.98687481  0.25936894  0.29204300    -0.13100
C741        C  0.23229554  0.22115918  0.25436344    -0.11500
C742        C  0.24909560  0.25588881  0.24846705    -0.13100
C743        C  0.01121744  0.23533452  0.96913226    -0.11500
C744        C  0.97461771  0.24733847  0.96908243    -0.13100
C745        C  0.08843735  0.14633228  0.14806826    -0.11500
C746        C  0.08795017  0.14590436  0.11309250    -0.13100
C747        C  0.97985874  0.75521212  0.99375990    -0.11500
C748        C  0.00605063  0.72723747  0.99375953    -0.13100
C749        C  0.87488018  0.85591609  0.86312011    -0.11500
C750        C  0.87843986  0.85949583  0.89762615    -0.13100
C751        C  0.01290410  0.00199219  0.00677313    -0.11500
C752        C  0.97821602  0.98509199  0.01264395    -0.13100
C753        C  0.65870712  0.97270675  0.26240798    -0.11500
C754        C  0.65866892  0.00966072  0.24905712    -0.13100
C755        C  0.54289467  0.87248125  0.37736001    -0.11500
C756        C  0.51539069  0.87109993  0.40241841    -0.13100
C757        C  0.64239331  0.72131529  0.35775085    -0.11500
C758        C  0.63979433  0.69188194  0.38114801    -0.13100
C759        C  0.83513117  0.51055140  0.25172197    -0.11500
C760        C  0.83512538  0.47182738  0.25922201    -0.13100
C761        C  0.94372561  0.59441445  0.13096708    -0.11500
C762        C  0.97316914  0.59186452  0.10758441    -0.13100
C763        C  0.86292497  0.76350820  0.15222695    -0.11500
C764        C  0.86153756  0.79100975  0.12716090    -0.13100
C765        C  0.75368994  0.72117250  0.25682299    -0.11500
C766        C  0.73686521  0.75588152  0.26276502    -0.13100
C767        C  0.26231673  0.08350723  0.00920452    -0.11500
C768        C  0.22358602  0.08350510  0.00172762    -0.13100
C769        C  0.34613080  0.19194402  0.13010662    -0.11500
C770        C  0.34354530  0.22138396  0.15349531    -0.13100
C771        C  0.51521588  0.11091928  0.10891978    -0.11500
C772        C  0.54271938  0.10954945  0.13398343    -0.13100
C773        C  0.72448291  0.90693260  0.99878842    -0.11500
C774        C  0.76142959  0.90693456  0.01215584    -0.13100
C775        C  0.62437449  0.79117294  0.88369368    -0.11500
C776        C  0.62298546  0.76366431  0.85864205    -0.13100
C777        C  0.60766526  0.85934124  0.11329102    -0.11500
C778        C  0.61127718  0.85576925  0.14779510    -0.13100
C779        C  0.47315087  0.89059142  0.90337616    -0.11500
C780        C  0.44372844  0.88803643  0.87997252    -0.13100
C781        C  0.47289138  0.00182190  0.00431247    -0.11500
C782        C  0.50759888  0.98496086  0.99842228    -0.13100
C783        C  0.12429976  0.29095701  0.38381813    -0.11500
C784        C  0.12290063  0.26344853  0.35875759    -0.13100
C785        C  0.22449243  0.40690476  0.49887638    -0.11500
C786        C  0.26140508  0.40689529  0.51232140    -0.13100
C787        C  0.97317734  0.39049937  0.40334517    -0.11500
C788        C  0.94373128  0.38792522  0.37996353    -0.13100
C789        C  0.72358911  0.58341706  0.50190907    -0.11500
C790        C  0.76233379  0.58342545  0.50931468    -0.13100
C791        C  0.84362128  0.72160826  0.65314077    -0.11500
C792        C  0.84620312  0.69218349  0.62974391    -0.13100
C793        C  0.89811360  0.64577483  0.39784426    -0.11500
C794        C  0.89766457  0.64626379  0.36286715    -0.13100
C795        C  0.01538215  0.61143134  0.60849105    -0.11500
C796        C  0.04287246  0.61002937  0.63355965    -0.13100
C797        C  0.97303496  0.50193295  0.50422992    -0.11500
C798        C  0.00772752  0.48505429  0.49832977    -0.13100
C799        C  0.33512654  0.01059724  0.75189997    -0.11500
C800        C  0.33513257  0.97185266  0.75931374    -0.13100
C801        C  0.44374002  0.09445438  0.63130025    -0.11500
C802        C  0.47318631  0.09183937  0.60792119    -0.13100
C803        C  0.39773895  0.14644433  0.86324631    -0.11500
C804        C  0.39824319  0.14603195  0.89822344    -0.13100
C805        C  0.36288153  0.26368499  0.65269343    -0.11500
C806        C  0.36147114  0.29120283  0.62764872    -0.13100
C807        C  0.15865528  0.50976794  0.74869956    -0.11500
C808        C  0.15863349  0.47285913  0.76215177    -0.13100
C809        C  0.01523915  0.37142979  0.90247359    -0.11500
C810        C  0.04274915  0.37283496  0.87741124    -0.13100
C811        C  0.11109574  0.35595655  0.64783133    -0.11500
C812        C  0.10755318  0.35952684  0.61332514    -0.13100
C813        C  0.13964137  0.19221467  0.88119795    -0.11500
C814        C  0.14220208  0.22165313  0.85781732    -0.13100
C815        C  0.23669891  0.25606014  0.76278358    -0.11500
C816        C  0.25358515  0.22135476  0.75692820    -0.13100
C817        C  0.14236535  0.76112029  0.65328010    -0.11500
C818        C  0.13978453  0.79054752  0.62987702    -0.13100
C819        C  0.26242218  0.89914217  0.50178491    -0.11500
C820        C  0.22368355  0.89915433  0.50922145    -0.13100
C821        C  0.01129367  0.74727890  0.54182269    -0.11500
C822        C  0.97469345  0.73528080  0.54176813    -0.13100
C823        C  0.97061454  0.87131126  0.60845878    -0.11500
C824        C  0.94310746  0.87271965  0.63351704    -0.13100
C825        C  0.86142845  0.19136791  0.38379722    -0.11500
C826        C  0.86278918  0.21886273  0.35872369    -0.13100
C827        C  0.76144803  0.07555558  0.49902965    -0.11500
C828        C  0.72453207  0.07554085  0.51246395    -0.13100
C829        C  0.97994826  0.22719722  0.51711959    -0.11500
C830        C  0.00613070  0.25518044  0.51714819    -0.13100
C831        C  0.01265306  0.09180099  0.40331657    -0.11500
C832        C  0.04208952  0.09434368  0.37992683    -0.13100
C833        C  0.01293938  0.98061948  0.50420168    -0.11500
C834        C  0.97820351  0.99743590  0.49836148    -0.13100
C835        C  0.32723097  0.50966200  0.26229608    -0.11500
C836        C  0.32720078  0.47271774  0.24893322    -0.13100
C837        C  0.44310823  0.60960464  0.37739078    -0.11500
C838        C  0.47062278  0.61099130  0.40243694    -0.13100
C839        C  0.50708359  0.75420189  0.24401361    -0.11500
C840        C  0.47910444  0.72801245  0.24405593    -0.13100
C841        C  0.34368875  0.76091923  0.35782890    -0.11500
C842        C  0.34624754  0.79036784  0.38120576    -0.13100
C843        C  0.15088262  0.97177964  0.25177633    -0.11500
C844        C  0.15087651  0.01050240  0.25928149    -0.13100
C845        C  0.04222604  0.88790755  0.13101089    -0.11500
C846        C  0.01276299  0.89047991  0.10764218    -0.13100
C847        C  0.99899620  0.75948772  0.21876229    -0.11500
C848        C  0.98697778  0.72289173  0.21877527    -0.13100
C849        C  0.08789084  0.83654607  0.39787527    -0.11500
C850        C  0.08830288  0.83602207  0.36289527    -0.13100
C851        C  0.12445625  0.69135298  0.12718605    -0.11500
C852        C  0.12310288  0.71884915  0.15225363    -0.13100
C853        C  0.23234298  0.76115002  0.25679664    -0.11500
C854        C  0.24922038  0.72645891  0.26271469    -0.13100
C855        C  0.22446365  0.57549876  0.01214666    -0.11500
C856        C  0.26140686  0.57549267  0.99878148    -0.13100
C857        C  0.36158151  0.69136776  0.88377607    -0.11500
C858        C  0.36299354  0.71886332  0.85870701    -0.13100
C859        C  0.50611519  0.75510351  0.01712005    -0.11500
C860        C  0.47991806  0.72712787  0.01714950    -0.13100
C861        C  0.37834049  0.62297309  0.11334853    -0.11500
C862        C  0.37480265  0.62658411  0.14785063    -0.13100
C863        C  0.51275618  0.59190276  0.90339799    -0.11500
C864        C  0.54220534  0.59450227  0.88001887    -0.13100
C865        C  0.76223359  0.39918893  0.00192246    -0.11500
C866        C  0.72351203  0.39918662  0.00943308    -0.13100
C867        C  0.63964990  0.29039963  0.13012670    -0.11500
C868        C  0.64217348  0.26092681  0.15348497    -0.13100
C869        C  0.47479642  0.23511151  0.04246226    -0.11500
C870        C  0.51139679  0.24711727  0.04245157    -0.13100
C871        C  0.47059180  0.37115290  0.10893494    -0.11500
C872        C  0.44309006  0.37254283  0.13399550    -0.13100
C873        C  0.47812644  0.49729339  0.99836845    -0.11500
C874        C  0.51281708  0.48043216  0.00432095    -0.13100
C875        C  0.65076427  0.47188766  0.75194301    -0.11500
C876        C  0.65077265  0.51063379  0.75935144    -0.13100
C877        C  0.54202374  0.38807433  0.63143045    -0.11500
C878        C  0.51260756  0.39064960  0.60802355    -0.13100
C879        C  0.49889872  0.25960082  0.71925995    -0.11500
C880        C  0.48691832  0.22299440  0.71921596    -0.13100
C881        C  0.58777324  0.33650625  0.89829437    -0.11500
C882        C  0.58824877  0.33607596  0.86331832    -0.13100
C883        C  0.62281569  0.21882085  0.65269648    -0.11500
C884        C  0.62425579  0.19131322  0.62763642    -0.13100
C885        C  0.82731477  0.00974663  0.76225796    -0.11500
C886        C  0.82733650  0.97283831  0.74880300    -0.13100
C887        C  0.94300030  0.11000633  0.87747411    -0.11500
C888        C  0.97049881  0.11141296  0.90253954    -0.13100
C889        C  0.00679612  0.25451773  0.74409124    -0.11500
C890        C  0.97883053  0.22831182  0.74409113    -0.13100
C891        C  0.87482947  0.12665000  0.64786150    -0.11500
C892        C  0.87845116  0.12305914  0.61336175    -0.13100
C893        C  0.84606669  0.29054234  0.88114364    -0.11500
C894        C  0.84347771  0.26109485  0.85776379    -0.13100
C895        C  0.73218827  0.26114865  0.75689333    -0.11500
C896        C  0.74903646  0.22643267  0.76274356    -0.13100
loop_ 
_geom_bond_atom_site_label_1 
_geom_bond_atom_site_label_2 
_geom_bond_distance 
_geom_bond_site_symmetry_2 
_ccdc_geom_bond_type 
O1           C16   1.255       .  A
O1           Al9   1.876       .  S
C2           O12   1.270       .  A
C2            O3   1.269       .  A
C2          C894   1.454       .  S
O3           Al5   1.953       .  S
O4            C6   1.244       .  A
O4           Al5   1.826       .  S
Al5          O13   1.853       .  S
Al5          O15   1.904       .  S
Al5          O14   1.767       .  S
C6           O19   1.261       .  A
C6          C890   1.400       .  S
O7           C17   1.256       .  A
O7           Al9   1.876       .  S
O8           C21   1.280       .  A
O8          Al18   1.980       .  S
Al9          O22   1.931       .  S
Al9          O19   1.918       .  S
Al9          O14   1.774       .  S
O10          C17   1.272       .  A
O10         Al18   1.961       .  S
O11          C20   1.268       .  A
O11         Al18   1.984       .  S
O12         Al18   1.925       .  S
O13          C20   1.239       .  A
O14         Al18   1.783       .  S
O15          C16   1.260       .  A
C16         C891   1.414       .  S
C17         C887   1.443       .  S
C20         C896   1.447       .  S
C21          O22   1.266       .  A
C21         C885   1.478       .  S
O23          C38   1.258       .  A
O23         Al31   1.873       .  S
C24          O34   1.262       .  A
C24          O25   1.254       .  A
C24         C877   1.452       .  S
O25         Al27   1.899       .  S
O26          C28   1.255       .  A
O26         Al27   1.923       .  S
Al27         O35   1.892       .  S
Al27         O37   1.948       .  S
Al27         O36   1.793       .  S
C28          O41   1.244       .  A
C28         C879   1.411       .  S
O29          C39   1.266       .  A
O29         Al31   1.909       .  S
O30          C43   1.276       .  A
O30         Al40   1.966       .  S
Al31         O44   1.808       .  S
Al31         O41   1.863       .  S
Al31         O36   1.787       .  S
O32          C39   1.271       .  A
O32         Al40   1.946       .  S
O33          C42   1.282       .  A
O33         Al40   1.993       .  S
O34         Al40   1.935       .  S
O35          C42   1.263       .  A
O36         Al40   1.768       .  S
O37          C38   1.271       .  A
C38         C882   1.425       .  S
C39         C883   1.445       .  S
C42         C875   1.468       .  S
C43          O44   1.238       .  A
C43         C895   1.428       .  S
O45          C60   1.258       .  A
O45         Al53   1.873   1_556  S
C46          O56   1.262       .  A
C46          O47   1.254       .  A
C46         C867   1.452       .  S
O47         Al49   1.898       .  S
O48          C50   1.255       .  A
O48         Al49   1.924       .  S
Al49         O57   1.892   1_554  S
Al49         O59   1.948   1_554  S
Al49         O58   1.793       .  S
C50          O63   1.244   1_554  A
C50         C870   1.412       .  S
O51          C61   1.266       .  A
O51         Al53   1.909       .  S
O52          C65   1.276       .  A
O52         Al62   1.967       .  S
Al53         O66   1.808       .  S
Al53         O63   1.863   1_554  S
Al53         O58   1.787       .  S
O54          C61   1.271       .  A
O54         Al62   1.946       .  S
O55          C64   1.282       .  A
O55         Al62   1.993       .  S
O56         Al62   1.935       .  S
O57          C64   1.263   1_556  A
O58         Al62   1.767       .  S
O59          C60   1.271       .  A
C60         C881   1.425       .  S
C61         C871   1.444       .  S
C64         C866   1.468       .  S
C65          O66   1.238       .  A
C65         C874   1.428       .  S
O67          C82   1.255       .  A
O67         Al75   1.876   1_554  S
C68          O78   1.270       .  A
C68          O69   1.269       .  A
C68         C863   1.454       .  S
O69         Al71   1.953   1_556  S
O70          C72   1.244       .  A
O70         Al71   1.826       .  S
Al71         O79   1.853       .  S
Al71         O81   1.903       .  S
Al71         O80   1.768   1_554  S
C72          O85   1.261       .  A
C72         C860   1.400       .  S
O73          C83   1.256       .  A
O73         Al75   1.876       .  S
O74          C87   1.280       .  A
O74         Al84   1.979       .  S
Al75         O88   1.931       .  S
Al75         O85   1.918   1_556  S
Al75         O80   1.774       .  S
O76          C83   1.272       .  A
O76         Al84   1.961       .  S
O77          C86   1.268       .  A
O77         Al84   1.984       .  S
O78         Al84   1.925       .  S
O79          C86   1.239   1_554  A
O80         Al84   1.783       .  S
O81          C82   1.260       .  A
C82         C861   1.414       .  S
C83         C857   1.443       .  S
C86         C873   1.447       .  S
C87          O88   1.266       .  A
C87         C856   1.478       .  S
O89         C104   1.258       .  A
O89         Al97   1.873       .  S
C90         O100   1.262       .  A
C90          O91   1.254       .  A
C90         C845   1.452       .  S
O91         Al93   1.899       .  S
O92          C94   1.255       .  A
O92         Al93   1.924       .  S
Al93        O101   1.892       .  S
Al93        O103   1.948       .  S
Al93        O102   1.793       .  S
C94         O107   1.244       .  A
C94         C847   1.412   1_455  S
O95         C105   1.266       .  A
O95         Al97   1.909       .  S
O96         C109   1.276       .  A
O96        Al106   1.967       .  S
Al97        O110   1.808       .  S
Al97        O107   1.863       .  S
Al97        O102   1.787       .  S
O98         C105   1.271       .  A
O98        Al106   1.946       .  S
O99         C108   1.282       .  A
O99        Al106   1.993       .  S
O100       Al106   1.936       .  S
O101        C108   1.263       .  A
O102       Al106   1.768       .  S
O103        C104   1.271       .  A
C104        C850   1.425       .  S
C105        C852   1.444       .  S
C108        C843   1.468       .  S
C109        O110   1.238       .  A
C109        C853   1.428       .  S
O111        C126   1.255       .  A
O111       Al119   1.875       .  S
C112        O122   1.270       .  A
C112        O113   1.269       .  A
C112        C841   1.454       .  S
O113       Al115   1.952       .  S
O114        C116   1.244       .  A
O114       Al115   1.826       .  S
Al115       O123   1.853       .  S
Al115       O125   1.904       .  S
Al115       O124   1.767       .  S
C116        O129   1.261       .  A
C116        C840   1.400       .  S
O117        C127   1.256       .  A
O117       Al119   1.876       .  S
O118        C131   1.280       .  A
O118       Al128   1.979       .  S
Al119       O132   1.931       .  S
Al119       O129   1.918       .  S
Al119       O124   1.774       .  S
O120        C127   1.272       .  A
O120       Al128   1.961       .  S
O121        C130   1.268       .  A
O121       Al128   1.984       .  S
O122       Al128   1.925       .  S
O123        C130   1.239       .  A
O124       Al128   1.783       .  S
O125        C126   1.260       .  A
C126        C862   1.414       .  S
C127        C837   1.442       .  S
C130        C854   1.447       .  S
C131        O132   1.266       .  A
C131        C835   1.478       .  S
O133        C148   1.255       .  A
O133       Al141   1.875       .  S
C134        O144   1.270       .  A
C134        O135   1.269       .  A
C134        C831   1.454   1_655  S
O135       Al137   1.952       .  S
O136        C138   1.244       .  A
O136       Al137   1.826       .  S
Al137       O145   1.853       .  S
Al137       O147   1.904       .  S
Al137       O146   1.767       .  S
C138        O151   1.261       .  A
C138        C829   1.400       .  S
O139        C149   1.256       .  A
O139       Al141   1.876       .  S
O140        C153   1.280       .  A
O140       Al150   1.979       .  S
Al141       O154   1.931       .  S
Al141       O151   1.918       .  S
Al141       O146   1.774       .  S
O142        C149   1.272       .  A
O142       Al150   1.961       .  S
O143        C152   1.268       .  A
O143       Al150   1.984       .  S
O144       Al150   1.925       .  S
O145        C152   1.239       .  A
O146       Al150   1.783       .  S
O147        C148   1.260       .  A
C148        C892   1.414       .  S
C149        C825   1.443       .  S
C152        C834   1.447   1_545  S
C153        O154   1.266       .  A
C153        C827   1.478       .  S
O155        C170   1.258       .  A
O155       Al163   1.873       .  S
C156        O166   1.262       .  A
C156        O157   1.254       .  A
C156        C818   1.452       .  S
O157       Al159   1.899       .  S
O158        C160   1.255       .  A
O158       Al159   1.924       .  S
Al159       O167   1.892       .  S
Al159       O169   1.948       .  S
Al159       O168   1.793       .  S
C160        O173   1.244       .  A
C160        C821   1.411       .  S
O161        C171   1.266       .  A
O161       Al163   1.909       .  S
O162        C175   1.276       .  A
O162       Al172   1.966       .  S
Al163       O176   1.808       .  S
Al163       O173   1.863       .  S
Al163       O168   1.787       .  S
O164        C171   1.271       .  A
O164       Al172   1.946       .  S
O165        C174   1.282       .  A
O165       Al172   1.993       .  S
O166       Al172   1.935       .  S
O167        C174   1.263       .  A
O168       Al172   1.768       .  S
O169        C170   1.271       .  A
C170        C849   1.425       .  S
C171        C823   1.445   1_455  S
C174        C820   1.468       .  S
C175        O176   1.238       .  A
C175        C833   1.428       .  S
O177        C192   1.255       .  A
O177       Al185   1.876       .  S
C178        O188   1.270       .  A
C178        O179   1.269       .  A
C178        C814   1.453       .  S
O179       Al181   1.952       .  S
O180        C182   1.244       .  A
O180       Al181   1.826       .  S
Al181       O189   1.853       .  S
Al181       O191   1.904       .  S
Al181       O190   1.768       .  S
C182        O195   1.261       .  A
C182        C889   1.400       .  S
O183        C193   1.256       .  A
O183       Al185   1.876       .  S
O184        C197   1.280       .  A
O184       Al194   1.979       .  S
Al185       O198   1.931       .  S
Al185       O195   1.918       .  S
Al185       O190   1.775       .  S
O186        C193   1.273       .  A
O186       Al194   1.962       .  S
O187        C196   1.268       .  A
O187       Al194   1.984       .  S
O188       Al194   1.925       .  S
O189        C196   1.239       .  A
O190       Al194   1.783       .  S
O191        C192   1.260       .  A
C192        C811   1.414       .  S
C193        C810   1.443       .  S
C196        C815   1.448       .  S
C197        O198   1.266       .  A
C197        C808   1.478       .  S
O199        C214   1.258       .  A
O199       Al207   1.873       .  S
C200        O210   1.262       .  A
C200        O201   1.254       .  A
C200        C801   1.452       .  S
O201       Al203   1.898       .  S
O202        C204   1.255       .  A
O202       Al203   1.924       .  S
Al203       O211   1.892       .  S
Al203       O213   1.948       .  S
Al203       O212   1.793       .  S
C204        O217   1.244       .  A
C204        C880   1.411       .  S
O205        C215   1.266       .  A
O205       Al207   1.909       .  S
O206        C219   1.276       .  A
O206       Al216   1.967       .  S
Al207       O220   1.808       .  S
Al207       O217   1.863       .  S
Al207       O212   1.787       .  S
O208        C215   1.271       .  A
O208       Al216   1.946       .  S
O209        C218   1.282       .  A
O209       Al216   1.993       .  S
O210       Al216   1.936       .  S
O211        C218   1.263       .  A
O212       Al216   1.768       .  S
O213        C214   1.271       .  A
C214        C803   1.425       .  S
C215        C805   1.444       .  S
C218        C799   1.468       .  S
C219        O220   1.238       .  A
C219        C816   1.428       .  S
O221        C236   1.258       .  A
O221       Al229   1.873       .  S
C222        O232   1.262       .  A
C222        O223   1.254       .  A
C222        C792   1.452       .  S
O223       Al225   1.899       .  S
O224        C226   1.255       .  A
O224       Al225   1.923       .  S
Al225       O233   1.892       .  S
Al225       O235   1.948       .  S
Al225       O234   1.793       .  S
C226        O239   1.244       .  A
C226        C822   1.412       .  S
O227        C237   1.266       .  A
O227       Al229   1.909       .  S
O228        C241   1.276       .  A
O228       Al238   1.966       .  S
Al229       O242   1.808       .  S
Al229       O239   1.863       .  S
Al229       O234   1.787       .  S
O230        C237   1.271       .  A
O230       Al238   1.946       .  S
O231        C240   1.282       .  A
O231       Al238   1.993       .  S
O232       Al238   1.935       .  S
O233        C240   1.263       .  A
O234       Al238   1.768       .  S
O235        C236   1.271       .  A
C236        C793   1.425       .  S
C237        C795   1.444   1_655  S
C240        C790   1.468       .  S
C241        O242   1.238       .  A
C241        C797   1.428       .  S
O243        C258   1.255       .  A
O243       Al251   1.876       .  S
C244        O254   1.270       .  A
C244        O245   1.269       .  A
C244        C787   1.454   1_455  S
O245       Al247   1.952       .  S
O246        C248   1.244       .  A
O246       Al247   1.826       .  S
Al247       O255   1.852       .  S
Al247       O257   1.904       .  S
Al247       O256   1.767       .  S
C248        O261   1.261       .  A
C248        C830   1.400       .  S
O249        C259   1.256       .  A
O249       Al251   1.876       .  S
O250        C263   1.280       .  A
O250       Al260   1.980       .  S
Al251       O264   1.931       .  S
Al251       O261   1.918       .  S
Al251       O256   1.774       .  S
O252        C259   1.273       .  A
O252       Al260   1.962       .  S
O253        C262   1.268       .  A
O253       Al260   1.984       .  S
O254       Al260   1.925       .  S
O255        C262   1.239       .  A
O256       Al260   1.783       .  S
O257        C258   1.260       .  A
C258        C812   1.414       .  S
C259        C783   1.443       .  S
C262        C798   1.447       .  S
C263        O264   1.266       .  A
C263        C785   1.478       .  S
O265        C280   1.255       .  A
O265       Al273   1.876   1_554  S
C266        O276   1.270       .  A
C266        O267   1.269       .  A
C266        C779   1.454       .  S
O267       Al269   1.953   1_556  S
O268        C270   1.244       .  A
O268       Al269   1.826       .  S
Al269       O277   1.853       .  S
Al269       O279   1.904       .  S
Al269       O278   1.768   1_554  S
C270        O283   1.261       .  A
C270        C859   1.400       .  S
O271        C281   1.256       .  A
O271       Al273   1.876       .  S
O272        C285   1.280       .  A
O272       Al282   1.979       .  S
Al273       O286   1.931       .  S
Al273       O283   1.918   1_556  S
Al273       O278   1.775       .  S
O274        C281   1.272       .  A
O274       Al282   1.961       .  S
O275        C284   1.268       .  A
O275       Al282   1.984       .  S
O276       Al282   1.925       .  S
O277        C284   1.239   1_554  A
O278       Al282   1.783       .  S
O279        C280   1.260       .  A
C280        C777   1.414       .  S
C281        C775   1.442       .  S
C284        C782   1.447       .  S
C285        O286   1.266       .  A
C285        C773   1.478       .  S
O287        C302   1.258       .  A
O287       Al295   1.873   1_556  S
C288        O298   1.262       .  A
C288        O289   1.254       .  A
C288        C769   1.452       .  S
O289       Al291   1.898       .  S
O290        C292   1.255       .  A
O290       Al291   1.924       .  S
Al291       O299   1.892   1_554  S
Al291       O301   1.948   1_554  S
Al291       O300   1.793       .  S
C292        O305   1.244   1_554  A
C292        C869   1.412       .  S
O293        C303   1.266       .  A
O293       Al295   1.909       .  S
O294        C307   1.276       .  A
O294       Al304   1.967       .  S
Al295       O308   1.808       .  S
Al295       O305   1.863   1_554  S
Al295       O300   1.787       .  S
O296        C303   1.271       .  A
O296       Al304   1.946       .  S
O297        C306   1.282       .  A
O297       Al304   1.993       .  S
O298       Al304   1.936       .  S
O299        C306   1.263   1_556  A
O300       Al304   1.768       .  S
O301        C302   1.271       .  A
C302        C804   1.425       .  S
C303        C771   1.445       .  S
C306        C767   1.468       .  S
C307        O308   1.238       .  A
C307        C781   1.428       .  S
O309        C324   1.258       .  A
O309       Al317   1.873       .  S
C310        O320   1.262       .  A
C310        O311   1.254       .  A
C310        C761   1.452       .  S
O311       Al313   1.898       .  S
O312        C314   1.255       .  A
O312       Al313   1.924       .  S
Al313       O321   1.892       .  S
Al313       O323   1.948       .  S
Al313       O322   1.793       .  S
C314        O327   1.244       .  A
C314        C848   1.412       .  S
O315        C325   1.266       .  A
O315       Al317   1.909       .  S
O316        C329   1.276       .  A
O316       Al326   1.966       .  S
Al317       O330   1.808       .  S
Al317       O327   1.863       .  S
Al317       O322   1.787       .  S
O318        C325   1.271       .  A
O318       Al326   1.946       .  S
O319        C328   1.282       .  A
O319       Al326   1.993       .  S
O320       Al326   1.935       .  S
O321        C328   1.263       .  A
O322       Al326   1.768       .  S
O323        C324   1.271       .  A
C324        C794   1.425       .  S
C325        C763   1.445       .  S
C328        C759   1.468       .  S
C329        O330   1.238       .  A
C329        C765   1.428       .  S
O331        C346   1.255       .  A
O331       Al339   1.876       .  S
C332        O342   1.270       .  A
C332        O333   1.269       .  A
C332        C757   1.454       .  S
O333       Al335   1.953       .  S
O334        C336   1.244       .  A
O334       Al335   1.826       .  S
Al335       O343   1.852       .  S
Al335       O345   1.904       .  S
Al335       O344   1.767       .  S
C336        O349   1.261       .  A
C336        C839   1.400       .  S
O337        C347   1.256       .  A
O337       Al339   1.876       .  S
O338        C351   1.280       .  A
O338       Al348   1.979       .  S
Al339       O352   1.931       .  S
Al339       O349   1.918       .  S
Al339       O344   1.774       .  S
O340        C347   1.272       .  A
O340       Al348   1.961       .  S
O341        C350   1.268       .  A
O341       Al348   1.984       .  S
O342       Al348   1.925       .  S
O343        C350   1.239       .  A
O344       Al348   1.783       .  S
O345        C346   1.260       .  A
C346        C778   1.414       .  S
C347        C755   1.443       .  S
C350        C766   1.447       .  S
C351        O352   1.266       .  A
C351        C753   1.478       .  S
O353        C368   1.255       .  A
O353       Al361   1.876   1_556  S
C354        O364   1.270       .  A
C354        O355   1.269       .  A
C354        C846   1.454   1_655  S
O355       Al357   1.952   1_554  S
O356        C358   1.244   1_554  A
O356       Al357   1.826   1_554  S
Al357       O365   1.852       .  S
Al357       O367   1.904       .  S
Al357       O366   1.768   1_556  S
C358        O371   1.261       .  A
C358        C747   1.400       .  S
O359        C369   1.256       .  A
O359       Al361   1.876       .  S
O360        C373   1.280       .  A
O360       Al370   1.980       .  S
Al361       O374   1.931       .  S
Al361       O371   1.918   1_554  S
Al361       O366   1.774       .  S
O362        C369   1.272       .  A
O362       Al370   1.961       .  S
O363        C372   1.268       .  A
O363       Al370   1.984       .  S
O364       Al370   1.925       .  S
O365        C372   1.239   1_556  A
O366       Al370   1.783       .  S
O367        C368   1.260       .  A
C368        C750   1.414       .  S
C369        C764   1.443       .  S
C372        C752   1.447       .  S
C373        O374   1.266       .  A
C373        C774   1.478       .  S
O375        C390   1.258       .  A
O375       Al383   1.873       .  S
C376        O386   1.262       .  A
C376        O377   1.254       .  A
C376        C813   1.452       .  S
O377       Al379   1.898       .  S
O378        C380   1.255       .  A
O378       Al379   1.923       .  S
Al379       O387   1.892   1_556  S
Al379       O389   1.948   1_556  S
Al379       O388   1.793       .  S
C380        O393   1.244   1_556  A
C380        C743   1.412       .  S
O381        C391   1.266       .  A
O381       Al383   1.909   1_556  S
O382        C395   1.276       .  A
O382       Al392   1.966       .  S
Al383       O396   1.808       .  S
Al383       O393   1.863       .  S
Al383       O388   1.787   1_554  S
O384        C391   1.271       .  A
O384       Al392   1.946       .  S
O385        C394   1.282       .  A
O385       Al392   1.993       .  S
O386       Al392   1.935       .  S
O387        C394   1.263   1_554  A
O388       Al392   1.768       .  S
O389        C390   1.271       .  A
C390        C746   1.425       .  S
C391        C888   1.444   1_455  S
C394        C768   1.468   1_556  S
C395        O396   1.238   1_556  A
C395        C751   1.428   1_556  S
O397        C412   1.258       .  A
O397       Al405   1.873       .  S
C398        O408   1.262       .  A
C398        O399   1.254       .  A
C398        C832   1.452       .  S
O399       Al401   1.899       .  S
O400        C402   1.255       .  A
O400       Al401   1.923       .  S
Al401       O409   1.892       .  S
Al401       O411   1.948       .  S
Al401       O410   1.793       .  S
C402        O415   1.244       .  A
C402        C739   1.411   1_455  S
O403        C413   1.266       .  A
O403       Al405   1.909       .  S
O404        C417   1.276       .  A
O404       Al414   1.966       .  S
Al405       O418   1.808       .  S
Al405       O415   1.863       .  S
Al405       O410   1.787       .  S
O406        C413   1.271       .  A
O406       Al414   1.946       .  S
O407        C416   1.282       .  A
O407       Al414   1.993       .  S
O408       Al414   1.935       .  S
O409        C416   1.263       .  A
O410       Al414   1.768       .  S
O411        C412   1.271       .  A
C412        C745   1.425       .  S
C413        C784   1.445       .  S
C416        C844   1.468       .  S
C417        O418   1.238       .  A
C417        C741   1.428       .  S
O419        C434   1.255       .  A
O419       Al427   1.876       .  S
C420        O430   1.270       .  A
C420        O421   1.269       .  A
C420        C770   1.454       .  S
O421       Al423   1.953       .  S
O422        C424   1.244       .  A
O422       Al423   1.826       .  S
Al423       O431   1.852       .  S
Al423       O433   1.904       .  S
Al423       O432   1.767       .  S
C424        O437   1.261       .  A
C424        C736   1.400       .  S
O425        C435   1.256       .  A
O425       Al427   1.876       .  S
O426        C439   1.280       .  A
O426       Al436   1.979       .  S
Al427       O440   1.931       .  S
Al427       O437   1.918       .  S
Al427       O432   1.774       .  S
O428        C435   1.272       .  A
O428       Al436   1.961       .  S
O429        C438   1.268       .  A
O429       Al436   1.984       .  S
O430       Al436   1.925       .  S
O431        C438   1.239       .  A
O432       Al436   1.783       .  S
O433        C434   1.260       .  A
C434        C737   1.414       .  S
C435        C872   1.443       .  S
C438        C742   1.447       .  S
C439        O440   1.266       .  A
C439        C836   1.478       .  S
O441        C456   1.258       .  A
O441       Al449   1.873       .  S
C442        O452   1.262       .  A
C442        O443   1.254       .  A
C442        C758   1.452       .  S
O443       Al445   1.899       .  S
O444        C446   1.255       .  A
O444       Al445   1.924       .  S
Al445       O453   1.892       .  S
Al445       O455   1.948       .  S
Al445       O454   1.793       .  S
C446        O459   1.244       .  A
C446        C730   1.412       .  S
O447        C457   1.266       .  A
O447       Al449   1.909       .  S
O448        C461   1.276       .  A
O448       Al458   1.967       .  S
Al449       O462   1.808       .  S
Al449       O459   1.863       .  S
Al449       O454   1.787       .  S
O450        C457   1.271       .  A
O450       Al458   1.946       .  S
O451        C460   1.282       .  A
O451       Al458   1.993       .  S
O452       Al458   1.936       .  S
O453        C460   1.263       .  A
O454       Al458   1.768       .  S
O455        C456   1.271       .  A
C456        C731   1.425       .  S
C457        C838   1.444       .  S
C460        C789   1.468       .  S
C461        O462   1.238       .  A
C461        C733   1.428       .  S
O463        C478   1.255       .  A
O463       Al471   1.875       .  S
C464        O474   1.270       .  A
C464        O465   1.269       .  A
C464        C878   1.454       .  S
O465       Al467   1.952       .  S
O466        C468   1.244       .  A
O466       Al467   1.826       .  S
Al467       O475   1.853       .  S
Al467       O477   1.904       .  S
Al467       O476   1.767       .  S
C468        O481   1.261       .  A
C468        C728   1.400       .  S
O469        C479   1.256       .  A
O469       Al471   1.876       .  S
O470        C483   1.280       .  A
O470       Al480   1.979       .  S
Al471       O484   1.931       .  S
Al471       O481   1.918       .  S
Al471       O476   1.774       .  S
O472        C479   1.272       .  A
O472       Al480   1.961       .  S
O473        C482   1.268       .  A
O473       Al480   1.984       .  S
O474       Al480   1.925       .  S
O475        C482   1.239       .  A
O476       Al480   1.783       .  S
O477        C478   1.260       .  A
C478        C738   1.414       .  S
C479        C806   1.443       .  S
C482        C734   1.447       .  S
C483        O484   1.266       .  A
C483        C786   1.478       .  S
O485        C500   1.255       .  A
O485       Al493   1.876       .  S
C486        O496   1.270       .  A
C486        O487   1.269       .  A
C486        C791   1.454       .  S
O487       Al489   1.952       .  S
O488        C490   1.244       .  A
O488       Al489   1.826       .  S
Al489       O497   1.853       .  S
Al489       O499   1.904       .  S
Al489       O498   1.768       .  S
C490        O503   1.261       .  A
C490        C723   1.400       .  S
O491        C501   1.256       .  A
O491       Al493   1.876       .  S
O492        C505   1.280       .  A
O492       Al502   1.980       .  S
Al493       O506   1.931       .  S
Al493       O503   1.918       .  S
Al493       O498   1.775       .  S
O494        C501   1.272       .  A
O494       Al502   1.962       .  S
O495        C504   1.268       .  A
O495       Al502   1.984       .  S
O496       Al502   1.925       .  S
O497        C504   1.239       .  A
O498       Al502   1.783       .  S
O499        C500   1.260       .  A
C500        C749   1.414       .  S
C501        C824   1.443       .  S
C504        C725   1.448       .  S
C505        O506   1.266       .  A
C505        C886   1.478       .  S
O507        C522   1.258       .  A
O507       Al515   1.873       .  S
C508        O518   1.262       .  A
C508        O509   1.254       .  A
C508        C864   1.452       .  S
O509       Al511   1.899       .  S
O510        C512   1.255       .  A
O510       Al511   1.924       .  S
Al511       O519   1.892       .  S
Al511       O521   1.948       .  S
Al511       O520   1.793       .  S
C512        O525   1.244       .  A
C512        C721   1.412       .  S
O513        C523   1.266       .  A
O513       Al515   1.909       .  S
O514        C527   1.276       .  A
O514       Al524   1.967       .  S
Al515       O528   1.808       .  S
Al515       O525   1.863       .  S
Al515       O520   1.787       .  S
O516        C523   1.271       .  A
O516       Al524   1.946       .  S
O517        C526   1.282       .  A
O517       Al524   1.993       .  S
O518       Al524   1.936       .  S
O519        C526   1.263       .  A
O520       Al524   1.768       .  S
O521        C522   1.271       .  A
C522        C732   1.425       .  S
C523        C776   1.444       .  S
C526        C876   1.468       .  S
C527        O528   1.238       .  A
C527        C726   1.428       .  S
O529        C544   1.258       .  A
O529       Al537   1.873       .  S
C530        O540   1.262       .  A
C530        O531   1.254       .  A
C530        C788   1.452       .  S
O531       Al533   1.898       .  S
O532        C534   1.255       .  A
O532       Al533   1.923       .  S
Al533       O541   1.892       .  S
Al533       O543   1.948       .  S
Al533       O542   1.793       .  S
C534        O547   1.244       .  A
C534        C740   1.411       .  S
O535        C545   1.266       .  A
O535       Al537   1.909       .  S
O536        C549   1.276       .  A
O536       Al546   1.966       .  S
Al537       O550   1.808       .  S
Al537       O547   1.863       .  S
Al537       O542   1.787       .  S
O538        C545   1.271       .  A
O538       Al546   1.946       .  S
O539        C548   1.282       .  A
O539       Al546   1.993       .  S
O540       Al546   1.935       .  S
O541        C548   1.263       .  A
O542       Al546   1.768       .  S
O543        C544   1.271       .  A
C544        C717   1.425       .  S
C545        C826   1.445       .  S
C548        C760   1.468       .  S
C549        O550   1.238       .  A
C549        C720   1.428       .  S
O551        C566   1.255       .  A
O551       Al559   1.875       .  S
C552        O562   1.270       .  A
C552        O553   1.269       .  A
C552        C868   1.454       .  S
O553       Al555   1.952       .  S
O554        C556   1.244       .  A
O554       Al555   1.826       .  S
Al555       O563   1.853       .  S
Al555       O565   1.903       .  S
Al555       O564   1.768       .  S
C556        O569   1.261       .  A
C556        C735   1.400       .  S
O557        C567   1.256       .  A
O557       Al559   1.876       .  S
O558        C571   1.280       .  A
O558       Al568   1.979       .  S
Al559       O572   1.931       .  S
Al559       O569   1.918       .  S
Al559       O564   1.774       .  S
O560        C567   1.272       .  A
O560       Al568   1.961       .  S
O561        C570   1.268       .  A
O561       Al568   1.984       .  S
O562       Al568   1.925       .  S
O563        C570   1.239       .  A
O564       Al568   1.783       .  S
O565        C566   1.260       .  A
C566        C715   1.414       .  S
C567        C772   1.443       .  S
C570        C719   1.447       .  S
C571        O572   1.266       .  A
C571        C754   1.478       .  S
O573        C588   1.258       .  A
O573       Al581   1.873       .  S
C574        O584   1.262       .  A
C574        O575   1.254       .  A
C574        C893   1.452       .  S
O575       Al577   1.898       .  S
O576        C578   1.255       .  A
O576       Al577   1.924       .  S
Al577       O585   1.892   1_556  S
Al577       O587   1.948   1_556  S
Al577       O586   1.793       .  S
C578        O591   1.244   1_556  A
C578        C744   1.411       .  S
O579        C589   1.266       .  A
O579       Al581   1.909   1_556  S
O580        C593   1.276       .  A
O580       Al590   1.966       .  S
Al581       O594   1.808       .  S
Al581       O591   1.863       .  S
Al581       O586   1.787   1_554  S
O582        C589   1.271       .  A
O582       Al590   1.946       .  S
O583        C592   1.282       .  A
O583       Al590   1.993       .  S
O584       Al590   1.936       .  S
O585        C592   1.263   1_554  A
O586       Al590   1.768       .  S
O587        C588   1.271       .  A
C588        C718   1.425       .  S
C589        C809   1.445   1_655  S
C592        C865   1.468   1_556  S
C593        O594   1.238   1_556  A
C593        C713   1.428   1_556  S
O595        C610   1.255       .  A
O595       Al603   1.875   1_556  S
C596        O606   1.270       .  A
C596        O597   1.269       .  A
C596        C762   1.454   1_455  S
O597       Al599   1.952   1_554  S
O598        C600   1.244   1_554  A
O598       Al599   1.826   1_554  S
Al599       O607   1.853       .  S
Al599       O609   1.904       .  S
Al599       O608   1.767   1_556  S
C600        O613   1.261       .  A
C600        C748   1.400       .  S
O601        C611   1.256       .  A
O601       Al603   1.876       .  S
O602        C615   1.280       .  A
O602       Al612   1.979       .  S
Al603       O616   1.931       .  S
Al603       O613   1.918   1_554  S
Al603       O608   1.774       .  S
O604        C611   1.272       .  A
O604       Al612   1.961       .  S
O605        C614   1.268       .  A
O605       Al612   1.984       .  S
O606       Al612   1.925       .  S
O607        C614   1.239   1_556  A
O608       Al612   1.783       .  S
O609        C610   1.260       .  A
C610        C711   1.414       .  S
C611        C851   1.443       .  S
C614        C714   1.447       .  S
C615        O616   1.266       .  A
C615        C855   1.478       .  S
O617        C632   1.255       .  A
O617       Al625   1.876       .  S
C618        O628   1.270       .  A
C618        O619   1.269       .  A
C618        C802   1.454       .  S
O619       Al621   1.952       .  S
O620        C622   1.244       .  A
O620       Al621   1.826       .  S
Al621       O629   1.853       .  S
Al621       O631   1.903       .  S
Al621       O630   1.768       .  S
C622        O635   1.261       .  A
C622        C727   1.400       .  S
O623        C633   1.256       .  A
O623       Al625   1.876       .  S
O624        C637   1.280       .  A
O624       Al634   1.980       .  S
Al625       O638   1.931       .  S
Al625       O635   1.918       .  S
Al625       O630   1.774       .  S
O626        C633   1.272       .  A
O626       Al634   1.961       .  S
O627        C636   1.268       .  A
O627       Al634   1.984       .  S
O628       Al634   1.925       .  S
O629        C636   1.239       .  A
O630       Al634   1.783       .  S
O631        C632   1.260       .  A
C632        C716   1.414       .  S
C633        C884   1.443       .  S
C636        C709   1.447   1_545  S
C637        O638   1.266       .  A
C637        C828   1.478       .  S
O639        C654   1.258       .  A
O639       Al647   1.873       .  S
C640        O650   1.262       .  A
C640        O641   1.254       .  A
C640        C842   1.452       .  S
O641       Al643   1.899       .  S
O642        C644   1.255       .  A
O642       Al643   1.923       .  S
Al643       O651   1.892       .  S
Al643       O653   1.948       .  S
Al643       O652   1.793       .  S
C644        O657   1.244       .  A
C644        C729   1.412       .  S
O645        C655   1.266       .  A
O645       Al647   1.909       .  S
O646        C659   1.276       .  A
O646       Al656   1.967       .  S
Al647       O660   1.808       .  S
Al647       O657   1.863       .  S
Al647       O652   1.787       .  S
O648        C655   1.271       .  A
O648       Al656   1.946       .  S
O649        C658   1.282       .  A
O649       Al656   1.993       .  S
O650       Al656   1.935       .  S
O651        C658   1.263       .  A
O652       Al656   1.768       .  S
O653        C654   1.271       .  A
C654        C707   1.425       .  S
C655        C756   1.444       .  S
C658        C819   1.468       .  S
C659        O660   1.238       .  A
C659        C710   1.428       .  S
O661        C676   1.258       .  A
O661       Al669   1.873       .  S
C662        O672   1.262       .  A
C662        O663   1.254       .  A
C662        C780   1.452       .  S
O663       Al665   1.899       .  S
O664        C666   1.255       .  A
O664       Al665   1.924       .  S
Al665       O673   1.892       .  S
Al665       O675   1.948       .  S
Al665       O674   1.793       .  S
C666        O679   1.244       .  A
C666        C722   1.412       .  S
O667        C677   1.266       .  A
O667       Al669   1.909       .  S
O668        C681   1.276       .  A
O668       Al678   1.966       .  S
Al669       O682   1.808       .  S
Al669       O679   1.863       .  S
Al669       O674   1.787       .  S
O670        C677   1.271       .  A
O670       Al678   1.946       .  S
O671        C680   1.282       .  A
O671       Al678   1.993       .  S
O672       Al678   1.935       .  S
O673        C680   1.263       .  A
O674       Al678   1.768       .  S
O675        C676   1.271       .  A
C676        C708   1.425       .  S
C677        C858   1.445       .  S
C680        C800   1.468       .  S
C681        O682   1.238       .  A
C681        C706   1.428       .  S
O683        C698   1.255       .  A
O683       Al691   1.876       .  S
C684        O694   1.270       .  A
C684        O685   1.269       .  A
C684        C817   1.454       .  S
O685       Al687   1.953       .  S
O686        C688   1.244       .  A
O686       Al687   1.826       .  S
Al687       O695   1.853       .  S
Al687       O697   1.903       .  S
Al687       O696   1.767       .  S
C688        O701   1.261       .  A
C688        C724   1.400       .  S
O689        C699   1.256       .  A
O689       Al691   1.876       .  S
O690        C703   1.280       .  A
O690       Al700   1.979       .  S
Al691       O704   1.931       .  S
Al691       O701   1.918       .  S
Al691       O696   1.774       .  S
O692        C699   1.272       .  A
O692       Al700   1.961       .  S
O693        C702   1.268       .  A
O693       Al700   1.984       .  S
O694       Al700   1.925       .  S
O695        C702   1.239       .  A
O696       Al700   1.783       .  S
O697        C698   1.260       .  A
C698        C712   1.414       .  S
C699        C796   1.443       .  S
C702        C705   1.447       .  S
C703        O704   1.266       .  A
C703        C807   1.478       .  S
C705        C706   1.212       .  T
C707        C708   1.200       .  T
C709        C710   1.212       .  T
C711        C712   1.193       .  T
C713        C714   1.212   1_655  T
C715        C716   1.193       .  T
C717        C718   1.200       .  T
C719        C720   1.212       .  T
C721        C722   1.193       .  T
C723        C724   1.187   1_655  T
C725        C726   1.212       .  T
C727        C728   1.187       .  T
C729        C730   1.193       .  T
C731        C732   1.200       .  T
C733        C734   1.212       .  T
C735        C736   1.187       .  T
C737        C738   1.194       .  T
C739        C740   1.193       .  T
C741        C742   1.212       .  T
C743        C744   1.193   1_455  T
C745        C746   1.199       .  T
C747        C748   1.187   1_655  T
C749        C750   1.193       .  T
C751        C752   1.212   1_445  T
C753        C754   1.233   1_565  T
C755        C756   1.211       .  T
C757        C758   1.217       .  T
C759        C760   1.227       .  T
C761        C762   1.217       .  T
C763        C764   1.211       .  T
C765        C766   1.212       .  T
C767        C768   1.227       .  T
C769        C770   1.217       .  T
C771        C772   1.211       .  T
C773        C774   1.233   1_556  T
C775        C776   1.211       .  T
C777        C778   1.194       .  T
C779        C780   1.217       .  T
C781        C782   1.212   1_544  T
C783        C784   1.211       .  T
C785        C786   1.233       .  T
C787        C788   1.217       .  T
C789        C790   1.227       .  T
C791        C792   1.217       .  T
C793        C794   1.200       .  T
C795        C796   1.211       .  T
C797        C798   1.212   1_655  T
C799        C800   1.227   1_545  T
C801        C802   1.217       .  T
C803        C804   1.200       .  T
C805        C806   1.211       .  T
C807        C808   1.233       .  T
C809        C810   1.211       .  T
C811        C812   1.193       .  T
C813        C814   1.217       .  T
C815        C816   1.212       .  T
C817        C818   1.217       .  T
C819        C820   1.227       .  T
C821        C822   1.193   1_455  T
C823        C824   1.211       .  T
C825        C826   1.211       .  T
C827        C828   1.233       .  T
C829        C830   1.187   1_655  T
C831        C832   1.217       .  T
C833        C834   1.212   1_455  T
C835        C836   1.233       .  T
C837        C838   1.211       .  T
C839        C840   1.187       .  T
C841        C842   1.217       .  T
C843        C844   1.227   1_565  T
C845        C846   1.217       .  T
C847        C848   1.193       .  T
C849        C850   1.200       .  T
C851        C852   1.211       .  T
C853        C854   1.212       .  T
C855        C856   1.233   1_554  T
C857        C858   1.211       .  T
C859        C860   1.187       .  T
C861        C862   1.193       .  T
C863        C864   1.217       .  T
C865        C866   1.227       .  T
C867        C868   1.217       .  T
C869        C870   1.193       .  T
C871        C872   1.211       .  T
C873        C874   1.212   1_556  T
C875        C876   1.227       .  T
C877        C878   1.217       .  T
C879        C880   1.193       .  T
C881        C882   1.199       .  T
C883        C884   1.211       .  T
C885        C886   1.233   1_545  T
C887        C888   1.211       .  T
C889        C890   1.187   1_455  T
C891        C892   1.193       .  T
C893        C894   1.217       .  T
C895        C896   1.212       .  T
