geometry optimzed in LAMMPS
_audit_creation_date              2020-12-01 
_audit_creation_method            'lammps2cif' 
_symmetry_space_group_name_H-M    'P1' 
_symmetry_Int_Tables_number       1 
_symmetry_cell_setting            triclinic 
loop_ 
_symmetry_equiv_pos_as_xyz 
  x,y,z 
_cell_length_a                    50.28158487 
_cell_length_b                    50.53417435874528 
_cell_length_c                    49.22885673730613 
_cell_angle_alpha                 90.59865911919005 
_cell_angle_beta                  90.53708700027194 
_cell_angle_gamma                 119.73177597427029 
loop_ 
_atom_site_label 
_atom_site_type_symbol 
_atom_site_fract_x 
_atom_site_fract_y 
_atom_site_fract_z 
_atom_site_charge 
Zn1        Zn  0.29740166  0.38528678  0.36349341     1.49700
Zn2        Zn  0.34030908  0.42846015  0.41242202     1.49400
Zn3        Zn  0.33825993  0.36579355  0.39484022     1.49100
Zn4        Zn  0.36812940  0.42173557  0.35611218     1.49500
O5          O  0.33627011  0.40089842  0.38204918    -1.84000
O6          O  0.28010019  0.41108303  0.37403379    -0.74600
O7          O  0.35165997  0.41402552  0.44805765    -0.74400
O8          O  0.29675584  0.32804086  0.39684427    -0.73900
O9          O  0.30156322  0.43277965  0.41384525    -0.74600
O10         O  0.26724951  0.34336648  0.37652146    -0.74200
O11         O  0.35427943  0.37389728  0.43261419    -0.74800
O12         O  0.39683656  0.40487728  0.35709714    -0.74200
O13         O  0.37435429  0.47163541  0.40431654    -0.74900
O14         O  0.36903099  0.35910176  0.37520963    -0.74300
O15         O  0.39140629  0.46651449  0.36429217    -0.74800
O16         O  0.35084825  0.41787267  0.31878367    -0.74700
O17         O  0.30060905  0.38808866  0.32256239    -0.74500
C18         C  0.28183922  0.42703912  0.39477496     0.77300
C19         C  0.35772330  0.39244497  0.45171108     0.77800
C20         C  0.27041988  0.32368733  0.38995379     0.76700
C21         C  0.39356175  0.37935343  0.36448644     0.77100
C22         C  0.39175669  0.48316614  0.38400002     0.78300
C23         C  0.32405151  0.40414684  0.30827370     0.77300
Zn24       Zn  0.41297260  0.36304927  0.65052749     1.49700
Zn25       Zn  0.38067974  0.29265581  0.64082919     1.49400
Zn26       Zn  0.35792704  0.33163383  0.60801059     1.49100
Zn27       Zn  0.42321166  0.33746439  0.59358851     1.49500
O28         O  0.39394022  0.33114623  0.62295973    -1.84000
O29         O  0.40961839  0.34694065  0.68854271    -0.74600
O30         O  0.33615167  0.26367034  0.63265622    -0.74400
O31         O  0.35223329  0.36552009  0.62430700    -0.73900
O32         O  0.38921415  0.29717071  0.68159022    -0.74600
O33         O  0.39619284  0.39164389  0.64740528    -0.74200
O34         O  0.31984961  0.28957238  0.60780566    -0.74800
O35         O  0.41085527  0.35147260  0.55835046    -0.74200
O36         O  0.40246006  0.27250461  0.62490677    -0.74900
O37         O  0.36555485  0.34507524  0.56986147    -0.74300
O38         O  0.42681993  0.29879907  0.58835107    -0.74800
O39         O  0.46600637  0.37073035  0.60529499    -0.74700
O40         O  0.45784937  0.38734280  0.64444117    -0.74500
C41         C  0.40092807  0.32036267  0.69752702     0.77300
C42         C  0.31541030  0.26493367  0.61864392     0.77800
C43         C  0.37206776  0.38969782  0.63676027     0.76700
C44         C  0.38693951  0.35342231  0.55283684     0.77100
C45         C  0.41849486  0.27606633  0.60401449     0.78300
C46         C  0.47600218  0.38808481  0.62633735     0.77300
Zn47       Zn  0.06599430  0.38632676  0.36382056     1.49700
Zn48       Zn  0.11231451  0.40955571  0.41518267     1.49400
Zn49       Zn  0.12716413  0.45074691  0.36171490     1.49100
Zn50       Zn  0.07279842  0.43931512  0.40213511     1.49500
O51         O  0.09499248  0.42153633  0.38540029    -1.84000
O52         O  0.06555850  0.34910592  0.37723677    -0.74600
O53         O  0.15620353  0.42367789  0.40761843    -0.74400
O54         O  0.11603163  0.43749419  0.32166501    -0.73900
O55         O  0.09177044  0.36319241  0.41650698    -0.74600
O56         O  0.07570575  0.39120683  0.32413013    -0.74200
O57         O  0.16782987  0.45299308  0.37140484    -0.74800
O58         O  0.08731366  0.48001480  0.38732125    -0.74200
O59         O  0.11399755  0.43176267  0.45074557    -0.74900
O60         O  0.13305390  0.99232411  0.36155531    -0.74300
O61         O  0.08352620  0.45034827  0.44146750    -0.74800
O62         O  0.02750195  0.41489087  0.39550896    -0.74700
O63         O  0.02326965  0.37965481  0.36566774    -0.74500
C64         C  0.07562351  0.34280334  0.39856668     0.77300
C65         C  0.17541953  0.44058111  0.39012663     0.77800
C66         C  0.09523406  0.41304192  0.31008416     0.76700
C67         C  0.11319319  0.00003192  0.36748121     0.77100
C68         C  0.10233123  0.44822356  0.45745225     0.78300
C69         C  0.01152350  0.39259256  0.37937395     0.77300
Zn70       Zn  0.19922863  0.08578868  0.64050979     1.49700
Zn71       Zn  0.15850971  0.02447245  0.60921587     1.49400
Zn72       Zn  0.12911597  0.05426183  0.64522443     1.49100
Zn73       Zn  0.15834325  0.08555840  0.58854867     1.49500
O74         O  0.16137484  0.06286345  0.62025263    -1.84000
O75         O  0.22851095  0.07089093  0.63123870    -0.74600
O76         O  0.12351807  0.48716368  0.62597434    -0.74400
O77         O  0.14353006  0.06483671  0.68397065    -0.73900
O78         O  0.19926466  0.02527216  0.61184021    -0.74600
O79         O  0.19389455  0.08636675  0.68147093    -0.74200
O80         O  0.09743278  0.01057106  0.64205989    -0.74800
O81         O  0.12431842  0.09652600  0.59500195    -0.74200
O82         O  0.14811920  0.01817745  0.57044864    -0.74900
O83         O  0.10915063  0.07828947  0.63614494    -0.74300
O84         O  0.14827481  0.05838953  0.55289551    -0.74800
O85         O  0.19765046  0.12814309  0.58794490    -0.74700
O86         O  0.21786627  0.12841051  0.62855590    -0.74500
C87         C  0.22535174  0.04670515  0.61990806     0.77300
C88         C  0.09899241  0.48521290  0.63508970     0.77800
C89         C  0.16985260  0.07777186  0.69542928     0.76700
C90         C  0.10841473  0.09344284  0.61608384     0.77100
C91         C  0.14431352  0.03133145  0.55023805     0.78300
C92         C  0.21671250  0.14223159  0.60751921     0.77300
Zn93       Zn  0.08992304  0.18504457  0.42009537     1.49700
Zn94       Zn  0.04832072  0.16505769  0.36453101     1.49400
Zn95       Zn  0.11187384  0.16615483  0.36815793     1.49100
Zn96       Zn  0.05576032  0.11789058  0.40061401     1.49500
O97         O  0.07645359  0.15902947  0.38799750    -1.84000
O98         O  0.08078669  0.21792232  0.41287297    -0.74600
O99         O  0.06242024  0.16884434  0.32471534    -0.74400
O100        O  0.14915759  0.20123438  0.38357375    -0.73900
O101        O  0.05060747  0.20548009  0.37615255    -0.74600
O102        O  0.13697567  0.20873015  0.42513065    -0.74200
O103        O  0.10839388  0.17368677  0.32929384    -0.74800
O104        O  0.08206808  0.09839598  0.39716849    -0.74200
O105        O  0.50374645  0.12850692  0.36852395    -0.74900
O106        O  0.11736947  0.13011166  0.36858666    -0.74300
O107        O  0.51876975  0.09455504  0.37682648    -0.74800
O108        O  0.03716425  0.11506768  0.43760028    -0.74700
O109        O  0.06297317  0.16298624  0.45237384    -0.74500
C110        C  0.06594556  0.22411179  0.39555264     0.77300
C111        C  0.08737376  0.17282873  0.31428706     0.77800
C112        C  0.15667478  0.21504161  0.40642189     0.76700
C113        C  0.10432504  0.10522693  0.38124978     0.77100
C114        C  0.49782471  0.10099239  0.37170935     0.78300
C115        C  0.04129740  0.13557485  0.45508431     0.77300
Zn116      Zn  0.40388512  0.06760579  0.58615367     1.49700
Zn117      Zn  0.40536265  0.11127388  0.63560168     1.49400
Zn118      Zn  0.44259004  0.07816208  0.64136513     1.49100
Zn119      Zn  0.46431680  0.13290674  0.60158631     1.49500
O120        O  0.42871612  0.09715793  0.61561946    -1.84000
O121        O  0.36018760  0.06294289  0.58552376    -0.74600
O122        O  0.40870729  0.10926422  0.67672742    -0.74400
O123        O  0.41892187  0.03309398  0.63655748    -0.73900
O124        O  0.36207760  0.08429975  0.62587146    -0.74600
O125        O  0.39441321  0.02470748  0.59706081    -0.74200
O126        O  0.43625114  0.08623237  0.68003417    -0.74800
O127        O  0.00577872  0.14032481  0.61317030    -0.74200
O128        O  0.41560221  0.15310299  0.62346033    -0.74900
O129        O  0.48665115  0.09231403  0.63529773    -0.74300
O130        O  0.46043876  0.17131606  0.60302779    -0.74800
O131        O  0.46757259  0.12476665  0.56301528    -0.74700
O132        O  0.42899484  0.07983811  0.54954723    -0.74500
C133        C  0.34692828  0.06802277  0.60545724     0.77300
C134        C  0.42162797  0.09788214  0.69110944     0.77800
C135        C  0.40093717  0.01473073  0.61836420     0.76700
C136        C  0.01028561  0.11941533  0.62261069     0.77100
C137        C  0.43798982  0.17432580  0.61100663     0.78300
C138        C  0.45453637  0.10409897  0.54486467     0.77300
Zn139      Zn  0.13184332  0.17510116  0.14480761     1.49700
Zn140      Zn  0.07583288  0.12893272  0.10611657     1.49400
Zn141      Zn  0.06878955  0.17577258  0.14168801     1.49100
Zn142      Zn  0.11269830  0.19724640  0.09009758     1.49500
O143        O  0.09784573  0.16974530  0.12084837    -1.84000
O144        O  0.13801571  0.13845772  0.13957989    -0.74600
O145        O  0.03037785  0.10828386  0.11126384    -0.74400
O146        O  0.07895187  0.17974196  0.18114051    -0.73900
O147        O  0.09206907  0.10440246  0.12265367    -0.74600
O148        O  0.12150926  0.17731228  0.18502273    -0.74200
O149        O  0.02552793  0.14093304  0.13836524    -0.74800
O150        O  0.09104166  0.22267099  0.08893258    -0.74200
O151        O  0.08510377  0.12714544  0.06710196    -0.74900
O152        O  0.06870800  0.21285303  0.12926485    -0.74300
O153        O  0.11275855  0.17499204  0.05456393    -0.74800
O154        O  0.15686349  0.22761643  0.09695228    -0.74700
O155        O  0.17133661  0.21381822  0.13438596    -0.74500
C156        C  0.11869058  0.11154214  0.13139786     0.77300
C157        C  0.01394747  0.11576957  0.12528270     0.77800
C158        C  0.09935189  0.17899389  0.19591597     0.76700
C159        C  0.07663292  0.22808392  0.10756450     0.77100
C160        C  0.10129121  0.14647992  0.04953961     0.78300
C161        C  0.17738819  0.23201835  0.11458978     0.77300
Zn162      Zn  0.11919054  0.06880083  0.90251161     1.49700
Zn163      Zn  0.18683289  0.10350779  0.91766293     1.49400
Zn164      Zn  0.16419632  0.06066771  0.86498654     1.49100
Zn165      Zn  0.16383947  0.12360005  0.86460276     1.49500
O166        O  0.15889360  0.08959476  0.88680911    -1.84000
O167        O  0.11878038  0.08272045  0.94082469    -0.74600
O168        O  0.20911778  0.07930576  0.92094948    -0.74400
O169        O  0.12820870  0.01823769  0.86723369    -0.73900
O170        O  0.16788903  0.11010231  0.95185425    -0.74600
O171        O  0.09970199  0.02341049  0.89874086    -0.74200
O172        O  0.20032525  0.05908995  0.87910257    -0.74800
O173        O  0.16631366  0.11397171  0.82436598    -0.74200
O174        O  0.21946307  0.14477171  0.90989006    -0.74900
O175        O  0.17033464  0.07208314  0.82565541    -0.74300
O176        O  0.20396120  0.16237543  0.87586812    -0.74800
O177        O  0.12597221  0.12837380  0.86941489    -0.74700
O178        O  0.09299064  0.08176415  0.88398142    -0.74500
C179        C  0.13990934  0.10106137  0.95701175     0.77300
C180        C  0.21490100  0.06583666  0.90168713     0.77800
C181        C  0.10509285  0.00684125  0.88261097     0.76700
C182        C  0.16938603  0.09309171  0.81241039     0.77100
C183        C  0.22396040  0.16616950  0.89403590     0.78300
C184        C  0.09898274  0.10787368  0.87581082     0.77300
Zn185      Zn  0.04634163  0.37792893  0.13907113     1.49700
Zn186      Zn  0.05411888  0.43389942  0.10260411     1.49400
Zn187      Zn  0.10836520  0.44103783  0.13874049     1.49100
Zn188      Zn  0.08683470  0.39931483  0.08509136     1.49500
O189        O  0.07385584  0.41262326  0.11686296    -1.84000
O190        O  0.50610592  0.37590073  0.13488614    -0.74600
O191        O  0.07950846  0.47983590  0.10810014    -0.74400
O192        O  0.10378973  0.42926287  0.17782799    -0.73900
O193        O  0.51983320  0.42398344  0.12472067    -0.74600
O194        O  0.05859033  0.38717754  0.17988458    -0.74200
O195        O  0.11426662  0.48325724  0.13832768    -0.74800
O196        O  0.13323749  0.42435889  0.08151791    -0.74200
O197        O  0.03796237  0.42037311  0.06415467    -0.74900
O198        O  0.14569490  0.44301058  0.12388807    -0.74300
O199        O  0.05971073  0.39360146  0.05148761    -0.74800
O200        O  0.07987143  0.35796223  0.09191097    -0.74700
O201        O  0.04987265  0.34030850  0.12760731    -0.74500
C202        C  0.49955143  0.39695717  0.13035037     0.77300
C203        C  0.10168279  0.49538386  0.12468375     0.77800
C204        C  0.08263260  0.40851384  0.19163136     0.76700
C205        C  0.15301436  0.43740416  0.10075802     0.77100
C206        C  0.04045725  0.40267911  0.04709468     0.78300
C207        C  0.06536158  0.33695358  0.10871442     0.77300
Zn208      Zn  0.45539673  0.32259771  0.86599746     1.49700
Zn209      Zn  0.44314142  0.36792768  0.90359702     1.49400
Zn210      Zn  0.39134254  0.32097021  0.86538969     1.49100
Zn211      Zn  0.41268551  0.29980158  0.91885251     1.49500
O212        O  0.42573561  0.32738510  0.88819238    -1.84000
O213        O  0.99761693  0.35952072  0.86553776    -0.74600
O214        O  0.41848854  0.38864272  0.89609330    -0.74400
O215        O  0.39662436  0.31318401  0.82646243    -0.73900
O216        O  0.48356412  0.39291801  0.88783654    -0.74600
O217        O  0.44363740  0.31957425  0.82548594    -0.74200
O218        O  0.38512681  0.35736759  0.86496683    -0.74800
O219        O  0.36575635  0.27652596  0.92002075    -0.74200
O220        O  0.45466183  0.37015940  0.94291683    -0.74900
O221        O  0.35359944  0.28597261  0.87906806    -0.74300
O222        O  0.43595177  0.32196216  0.95422286    -0.74800
O223        O  0.42452070  0.26775627  0.91212923    -0.74700
O224        O  0.45584791  0.28363514  0.87713223    -0.74500
C225        C  0.00326982  0.38664894  0.87074775     0.77300
C226        C  0.39720288  0.38216354  0.87866073     0.77800
C227        C  0.41924065  0.31536846  0.81333538     0.76700
C228        C  0.34600798  0.27122744  0.90108181     0.77100
C229        C  0.45254419  0.35038539  0.95981827     0.78300
C230        C  0.44165984  0.26400328  0.89547717     0.77300
Zn231      Zn  0.33626040  0.46952699  0.10667095     1.49700
Zn232      Zn  0.29699671  0.40911608  0.13754515     1.49400
Zn233      Zn  0.33963830  0.40904912  0.09010737     1.49100
Zn234      Zn  0.36752745  0.44591264  0.14648881     1.49500
O235        O  0.33531407  0.43305790  0.11974919    -1.84000
O236        O  0.29438750  0.46527641  0.10507792    -0.74600
O237        O  0.28074874  0.36569732  0.12828973    -0.74400
O238        O  0.34959073  0.43379893  0.05420583    -0.73900
O239        O  0.26618296  0.41995992  0.12370861    -0.74600
O240        O  0.35120750  0.47639533  0.06904532    -0.74200
O241        O  0.30144926  0.36553304  0.08853340    -0.74800
O242        O  0.39137935  0.42473640  0.14005721    -0.74200
O243        O  0.30063200  0.41292974  0.17831749    -0.74900
O244        O  0.37537556  0.40200929  0.09968939    -0.74300
O245        O  0.35113962  0.43701487  0.18398978    -0.74800
O246        O  0.39614871  0.49067658  0.14430173    -0.74700
O247        O  0.37115833  0.00915681  0.12564074    -0.74500
C248        C  0.26852496  0.44300133  0.11139476     0.77300
C249        C  0.28239449  0.35156604  0.10747088     0.77800
C250        C  0.35488186  0.46108018  0.05037658     0.76700
C251        C  0.39296590  0.40884524  0.12058187     0.77100
C252        C  0.32435066  0.42417954  0.19366500     0.78300
C253        C  0.39653801  0.01331135  0.13530563     0.77300
Zn254      Zn  0.38345624  0.08694614  0.86247652     1.49700
Zn255      Zn  0.41553471  0.04850539  0.85420084     1.49400
Zn256      Zn  0.42440106  0.08420073  0.91165943     1.49100
Zn257      Zn  0.36042694  0.02531151  0.89347795     1.49500
O258        O  0.39636404  0.06154252  0.88080409    -1.84000
O259        O  0.38736684  0.08693834  0.82126911    -0.74600
O260        O  0.46007547  0.06946468  0.86174371    -0.74400
O261        O  0.42888436  0.12725822  0.91541285    -0.73900
O262        O  0.41157245  0.06057879  0.81635666    -0.74600
O263        O  0.40974266  0.12979103  0.87513978    -0.74200
O264        O  0.46731479  0.09288022  0.90171829    -0.74800
O265        O  0.36700434  0.01888048  0.93197018    -0.74200
O266        O  0.39963155  0.00348781  0.85660291    -0.74900
O267        O  0.41060136  0.05790148  0.94694787    -0.74300
O268        O  0.35593690  0.48721496  0.87594368    -0.74800
O269        O  0.32292678  0.02976732  0.89284070    -0.74700
O270        O  0.34091627  0.07533434  0.87417277    -0.74500
C271        C  0.40057759  0.07630637  0.80633920     0.77300
C272        C  0.47779662  0.08626872  0.88074068     0.77800
C273        C  0.42440504  0.14247085  0.89701800     0.76700
C274        C  0.38691552  0.03177766  0.95081522     0.77100
C275        C  0.37792359  0.48388830  0.86718697     0.78300
C276        C  0.31977611  0.05227465  0.88598461     0.77300
C277        C  0.35647994  0.98420627  0.97732342    -0.20100
C278        C  0.38154259  0.01437467  0.97682494    -0.06700
C279        C  0.39999225  0.02600671  0.00069597     0.14200
C280        C  0.39128133  0.50555141  0.02349164    -0.20200
C281        C  0.36510896  0.47636645  0.02387524    -0.06700
C282        C  0.34640242  0.46527855  0.00042437     0.14100
C283        C  0.31774417  0.43449477  0.99999586    -0.23500
H284        H  0.34168603  0.97473839  0.95961519     0.15400
H285        H  0.40536428  0.51421473  0.04177791     0.15500
C286        C  0.42727631  0.05767594  0.00214726    -0.23500
H287        H  0.30533529  0.42944548  0.98015762     0.05700
H288        H  0.30201674  0.43370926  0.01606031     0.08900
H289        H  0.32379351  0.41646246  0.00362348     0.08900
H290        H  0.41993822  0.07470023  0.99813117     0.08900
H291        H  0.44446842  0.05983204  0.98704600     0.08900
H292        H  0.43861542  0.06299927  0.02247395     0.05700
C293        C  0.39006089  0.44613326  0.84684912    -0.20100
C294        C  0.37601798  0.45368910  0.86772302    -0.06700
C295        C  0.36596690  0.43524410  0.89108891     0.14200
C296        C  0.37199475  0.41105556  0.89365810    -0.20200
C297        C  0.38740208  0.40466511  0.87339530    -0.06700
C298        C  0.39572814  0.42172016  0.84935172     0.14100
C299        C  0.41211955  0.41524429  0.82700842    -0.23500
H300        H  0.39792157  0.46030134  0.82904618     0.15400
H301        H  0.36566554  0.39773118  0.91200500     0.15500
C302        C  0.36318666  0.95069744  0.91837931    -0.23500
H303        H  0.41751937  0.43113209  0.80985152     0.05700
H304        H  0.39748720  0.39166533  0.81898365     0.08900
H305        H  0.43397545  0.41771762  0.83501863     0.08900
H306        H  0.34069228  0.94967942  0.91646769     0.08900
H307        H  0.38164493  0.97466016  0.92161309     0.08900
H308        H  0.36257614  0.93774256  0.93668367     0.05700
C309        C  0.43260783  0.21781837  0.92114237    -0.20100
C310        C  0.44361925  0.23539165  0.89746850    -0.06700
C311        C  0.45323016  0.22357845  0.87575810     0.14200
C312        C  0.44902031  0.19397456  0.87744885    -0.20200
C313        C  0.43560751  0.17564132  0.90012261    -0.06700
C314        C  0.42840070  0.18816494  0.92268595     0.14100
C315        C  0.41441353  0.16967235  0.94766766    -0.23500
H316        H  0.42587325  0.22674651  0.93822753     0.15400
H317        H  0.45482190  0.18435704  0.86022863     0.15500
C318        C  0.46650154  0.24104200  0.85010812    -0.23500
H319        H  0.40950272  0.18270076  0.96320474     0.05700
H320        H  0.43046463  0.16308014  0.95690777     0.08900
H321        H  0.39252652  0.14882039  0.94215885     0.08900
H322        H  0.98741145  0.26060750  0.85119632     0.08900
H323        H  0.44954538  0.24571763  0.83984269     0.08900
H324        H  0.97170069  0.22560975  0.83205155     0.05700
C325        C  0.48180655  0.39167334  0.99426957    -0.20100
C326        C  0.47213813  0.36170568  0.98513264    -0.06700
C327        C  0.98930888  0.34727269  0.99102839     0.14200
C328        C  0.01121706  0.36147324  0.01221936    -0.20200
C329        C  0.01874036  0.39033934  0.02303053    -0.06700
C330        C  0.50429439  0.40611054  0.01486947     0.14100
C331        C  0.51330393  0.43832930  0.02318448    -0.23500
H332        H  0.47194475  0.40420965  0.98486797     0.15400
H333        H  0.02222299  0.34957214  0.02072711     0.15500
C334        C  0.98290422  0.31653688  0.98041192    -0.23500
H335        H  0.50166366  0.44764888  0.01039096     0.05700
H336        H  0.53839159  0.45335715  0.02105723     0.08900
H337        H  0.50665856  0.43901218  0.04449966     0.08900
H338        H  0.98813096  0.31785226  0.95843933     0.08900
H339        H  0.95849215  0.29940442  0.98353134     0.08900
H340        H  0.99705818  0.30846707  0.99107732     0.05700
C341        C  0.45406542  0.38733192  0.10381550    -0.20100
C342        C  0.46778294  0.39076800  0.12953632    -0.06700
C343        C  0.45487519  0.39669991  0.15234256     0.14200
C344        C  0.42900875  0.40008051  0.14886628    -0.20200
C345        C  0.41642986  0.39903786  0.12284356    -0.06700
C346        C  0.42867662  0.39157796  0.10004512     0.14100
C347        C  0.41674261  0.38998902  0.07150556    -0.23500
H348        H  0.46476497  0.38361777  0.08629388     0.15400
H349        H  0.41964600  0.40523712  0.16652953     0.15500
C350        C  0.46955808  0.40130990  0.18009471    -0.23500
H351        H  0.42976745  0.38474917  0.05632580     0.05700
H352        H  0.41885725  0.41223810  0.06614637     0.08900
H353        H  0.39241659  0.37170480  0.06984421     0.08900
H354        H  0.98932472  0.41447904  0.17822500     0.08900
H355        H  0.47043974  0.38055309  0.18577587     0.08900
H356        H  0.45659609  0.40584337  0.19585454     0.05700
C357        C  0.18843793  0.41982012  0.08636634    -0.20100
C358        C  0.18461175  0.44325520  0.09771237    -0.06700
C359        C  0.20999931  0.46870420  0.11033233     0.14200
C360        C  0.23784973  0.46883649  0.11305882    -0.20200
C361        C  0.24046498  0.44377227  0.10438300    -0.06700
C362        C  0.21589622  0.41942266  0.09003295     0.14100
C363        C  0.21840600  0.39288173  0.07875182    -0.23500
H364        H  0.16917989  0.40063420  0.07632853     0.15400
H365        H  0.25711272  0.48776264  0.12341832     0.15500
C366        C  0.20791621  0.49565035  0.12115476    -0.23500
H367        H  0.19746635  0.37663271  0.06708357     0.05700
H368        H  0.22155144  0.38011863  0.09550130     0.08900
H369        H  0.23816671  0.40130233  0.06489600     0.08900
H370        H  0.19244697  0.48904607  0.13876094     0.08900
H371        H  0.19931187  0.50466962  0.10489437     0.08900
H372        H  0.23062061  0.51438431  0.12821770     0.05700
C373        C  0.27508594  0.19576003  0.91653002    -0.20100
C374        C  0.25372849  0.19522774  0.89736212    -0.06700
C375        C  0.26206064  0.22168956  0.88205821     0.14200
C376        C  0.29165487  0.24690921  0.88542983    -0.20200
C377        C  0.31359849  0.24646018  0.90320832    -0.06700
C378        C  0.30477197  0.22063553  0.91948644     0.14100
C379        C  0.32663864  0.21811923  0.93909911    -0.23500
H380        H  0.26905021  0.17599433  0.92884685     0.15400
H381        H  0.29807879  0.26682518  0.87318322     0.15500
C382        C  0.24047548  0.22366857  0.86179304    -0.23500
H383        H  0.31573249  0.19597862  0.94970641     0.05700
H384        H  0.33452122  0.23642030  0.95488564     0.08900
H385        H  0.34656375  0.21986330  0.92801261     0.08900
H386        H  0.21931671  0.21977836  0.87209634     0.08900
H387        H  0.23467607  0.20650600  0.84522864     0.08900
H388        H  0.25079282  0.24640627  0.85226537     0.05700
C389        C  0.06683910  0.46242236  0.85001546    -0.20100
C390        C  0.08139623  0.47340721  0.87537992    -0.06700
C391        C  0.07413550  0.45327807  0.89723387     0.14200
C392        C  0.05083135  0.42293824  0.89372763    -0.20200
C393        C  0.03421638  0.41273801  0.86918030    -0.06700
C394        C  0.04274499  0.43235229  0.84683945     0.14100
C395        C  0.53191113  0.41749009  0.82683472    -0.23500
H396        H  0.07285012  0.47799350  0.83322853     0.15400
H397        H  0.04371347  0.40784624  0.91094636     0.15500
C398        C  0.09036485  0.46393397  0.92437382    -0.23500
H399        H  0.54378502  0.43394094  0.81039125     0.05700
H400        H  0.50763921  0.41206555  0.82680323     0.08900
H401        H  0.53281940  0.39639068  0.82230368     0.08900
H402        H  0.08612807  0.48174460  0.93327558     0.08900
H403        H  0.11536663  0.47344504  0.92177101     0.08900
H404        H  0.08226849  0.44498421  0.93899673     0.05700
C405        C  0.23694584  0.03289869  0.89107573    -0.20100
C406        C  0.24043597  0.05943963  0.90397479    -0.06700
C407        C  0.26979605  0.08200592  0.91334046     0.14200
C408        C  0.29511264  0.07841794  0.90774816    -0.20200
C409        C  0.29177354  0.05283245  0.89331426    -0.06700
C410        C  0.26229203  0.02924613  0.88572469     0.14100
C411        C  0.25769460  0.00120514  0.87053884    -0.23500
H412        H  0.21440210  0.01563802  0.88387378     0.15400
H413        H  0.31786336  0.09613294  0.91402306     0.15500
C414        C  0.27497190  0.11079278  0.92758234    -0.23500
H415        H  0.23318970  0.98563652  0.86521554     0.05700
H416        H  0.26567786  0.98844453  0.88328798     0.08900
H417        H  0.27079295  0.00787747  0.85140019     0.08900
H418        H  0.26186294  0.10500728  0.94670364     0.08900
H419        H  0.26751416  0.12352551  0.91419194     0.08900
H420        H  0.29951399  0.12612023  0.93295094     0.05700
C421        C  0.02942932  0.10851751  0.90013204    -0.20100
C422        C  0.01182274  0.10023314  0.87604018    -0.06700
C423        C  0.02644744  0.10243524  0.85084722     0.14200
C424        C  0.05707402  0.10910010  0.85094777    -0.20200
C425        C  0.07320827  0.11364087  0.87537406    -0.06700
C426        C  0.05986149  0.11489212  0.90011196     0.14100
C427        C  0.07713244  0.12107282  0.92675763    -0.23500
H428        H  0.01879295  0.10785738  0.91934561     0.15400
H429        H  0.06761893  0.10824816  0.83208979     0.15500
C430        C  0.01013239  0.09726187  0.82375687    -0.23500
H431        H  0.06374036  0.12235004  0.94403684     0.05700
H432        H  0.09893465  0.14307441  0.92590948     0.08900
H433        H  0.08214871  0.10249471  0.93089155     0.08900
H434        H  0.49968042  0.11056197  0.82520459     0.08900
H435        H  0.49094894  0.07106324  0.82349561     0.08900
H436        H  0.02612461  0.10293216  0.80656591     0.05700
C437        C  0.43328328  0.05595191  0.10832301    -0.20100
C438        C  0.42363224  0.04378415  0.13418162    -0.06700
C439        C  0.44234349  0.05851060  0.15715120     0.14200
C440        C  0.47120197  0.08430789  0.15347203    -0.20200
C441        C  0.48191621  0.09483093  0.12731135    -0.06700
C442        C  0.46233698  0.08117173  0.10452856     0.14100
C443        C  0.47148681  0.09225192  0.07599029    -0.23500
H444        H  0.41874828  0.04458082  0.09069538     0.15400
H445        H  0.48625709  0.09507654  0.17092710     0.15500
C446        C  0.42831254  0.54323687  0.18746399    -0.23500
H447        H  0.47225435  0.07418895  0.06356262     0.05700
H448        H  0.49410181  0.11327907  0.07507459     0.08900
H449        H  0.45433157  0.09744468  0.06688952     0.08900
H450        H  0.42466138  0.51972773  0.18795859     0.08900
H451        H  0.40667360  0.54279098  0.19274852     0.08900
H452        H  0.44586058  0.55701765  0.20325533     0.05700
C453        C  0.21526611  0.27486605  0.08662250    -0.20100
C454        C  0.20831016  0.25966078  0.11169870    -0.06700
C455        C  0.22972439  0.27295985  0.13352040     0.14200
C456        C  0.25546190  0.30199648  0.13039310    -0.20200
C457        C  0.26058901  0.31829595  0.10620421    -0.06700
C458        C  0.24092654  0.30401199  0.08367262     0.14100
C459        C  0.24562557  0.32020545  0.05713111    -0.23500
H460        H  0.19965823  0.26459722  0.06944646     0.15400
H461        H  0.27088435  0.31292685  0.14759526     0.15500
C462        C  0.22514266  0.25778901  0.16062903    -0.23500
H463        H  0.22770818  0.30593849  0.04178472     0.05700
H464        H  0.26820561  0.32575355  0.04878021     0.08900
H465        H  0.24475933  0.34154934  0.06034054     0.08900
H466        H  0.22410389  0.23545206  0.15794712     0.08900
H467        H  0.20370186  0.25454711  0.16988445     0.08900
H468        H  0.24424503  0.27168200  0.17514871     0.05700
C469        C  0.09282545  0.28023671  0.09220463    -0.20100
C470        C  0.07084129  0.25407511  0.10514583    -0.06700
C471        C  0.04586666  0.25465036  0.11780926     0.14200
C472        C  0.04440422  0.28172825  0.11806862    -0.20200
C473        C  0.06719056  0.30841606  0.10619014    -0.06700
C474        C  0.09165776  0.30739687  0.09270970     0.14100
C475        C  0.11771779  0.33496888  0.07988987    -0.23500
H476        H  0.11203165  0.27989118  0.08269396     0.15400
H477        H  0.02543258  0.28212294  0.12797999     0.15500
C478        C  0.02037195  0.22683785  0.13083814    -0.23500
H479        H  0.13549066  0.33012817  0.07189901     0.05700
H480        H  0.12902103  0.35360569  0.09530180     0.08900
H481        H  0.10910549  0.34250932  0.06247379     0.08900
H482        H  0.02898930  0.22086874  0.14926809     0.08900
H483        H  0.01064667  0.20736882  0.11612505     0.08900
H484        H  0.49574778  0.22829756  0.11930638     0.05700
C485        C  0.12686253  0.07226584  0.15317348    -0.20100
C486        C  0.12688991  0.08756179  0.12965329    -0.06700
C487        C  0.12694370  0.07505739  0.10386403     0.14200
C488        C  0.12244000  0.04554738  0.10203645    -0.20200
C489        C  0.11862921  0.02867470  0.12540927    -0.06700
C490        C  0.12311490  0.04284069  0.15133987     0.14100
C491        C  0.09236675  0.51742785  0.17755727    -0.23500
H492        H  0.12720097  0.08222496  0.17288932     0.15400
H493        H  0.12014192  0.03494237  0.08222340     0.15500
C494        C  0.13000612  0.09217837  0.07813899    -0.23500
H495        H  0.12491168  0.04057209  0.19542333     0.05700
H496        H  0.10814874  0.50937456  0.18434249     0.08900
H497        H  0.06999416  0.49764301  0.17122733     0.08900
H498        H  0.15139230  0.11460952  0.07909402     0.08900
H499        H  0.11013448  0.09568712  0.07561249     0.08900
H500        H  0.13082640  0.07953500  0.05986324     0.05700
C501        C  0.10270486  0.09428189  0.99304504    -0.20100
C502        C  0.13113558  0.11311193  0.98115002    -0.06700
C503        C  0.14825060  0.14395029  0.99017468     0.14200
C504        C  0.13718337  0.15447014  0.01155533    -0.20200
C505        C  0.10924773  0.13524822  0.02422775    -0.06700
C506        C  0.09153372  0.10471844  0.01429219     0.14100
C507        C  0.06041250  0.08286374  0.02534109    -0.23500
H508        H  0.08900434  0.07099141  0.98561795     0.15400
H509        H  0.15091229  0.17780876  0.01883434     0.15500
C510        C  0.17765948  0.16630462  0.97679050    -0.23500
H511        H  0.04873080  0.06130763  0.01319952     0.05700
H512        H  0.04556918  0.09337134  0.02477223     0.08900
H513        H  0.06256814  0.07658268  0.04642805     0.08900
H514        H  0.17344077  0.16735554  0.95474269     0.08900
H515        H  0.19516954  0.15927191  0.97968640     0.08900
H516        H  0.18717596  0.18966983  0.98554878     0.05700
C517        C  0.38949040  0.08977135  0.73179352    -0.20100
C518        C  0.41786653  0.09604887  0.72108969    -0.06700
C519        C  0.44085465  0.09763621  0.73898841     0.14200
C520        C  0.43432834  0.09144418  0.76659310    -0.20200
C521        C  0.40557501  0.08386923  0.77708726    -0.06700
C522        C  0.38303004  0.08362425  0.75954820     0.14100
C523        C  0.35174049  0.07549128  0.76964427    -0.23500
H524        H  0.37178261  0.08843119  0.71815936     0.15400
H525        H  0.45191988  0.09242599  0.78018588     0.15500
C526        C  0.47255852  0.10640170  0.72940880    -0.23500
H527        H  0.33646589  0.07491209  0.75291915     0.05700
H528        H  0.35368345  0.09266280  0.78494648     0.08900
H529        H  0.34086579  0.05261714  0.77893548     0.08900
H530        H  0.48250834  0.12842703  0.71867801     0.08900
H531        H  0.47172339  0.08847364  0.71566380     0.08900
H532        H  0.48822384  0.10917331  0.74663030     0.05700
C533        C  0.49005010  0.14051611  0.51152647    -0.20100
C534        C  0.47174648  0.10985600  0.51881926    -0.06700
C535        C  0.47545277  0.08754453  0.50441095     0.14200
C536        C  0.00140885  0.09717143  0.48602025    -0.20200
C537        C  0.01871583  0.12767989  0.47758376    -0.06700
C538        C  0.01146917  0.14936825  0.48863810     0.14100
C539        C  0.02707279  0.18209046  0.47966744    -0.23500
H540        H  0.48723219  0.15780137  0.52226364     0.15400
H541        H  0.00604739  0.08015720  0.47720309     0.15500
C542        C  0.45653675  0.05429576  0.51099188    -0.23500
H543        H  0.01739632  0.19522098  0.48959836     0.05700
H544        H  0.02406381  0.18297562  0.45737918     0.08900
H545        H  0.05180482  0.19362977  0.48518747     0.08900
H546        H  0.43188638  0.04658250  0.50754073     0.08900
H547        H  0.46047090  0.05069475  0.53253494     0.08900
H548        H  0.46251000  0.03994293  0.49801923     0.05700
C549        C  0.06906648  0.17638674  0.26794894    -0.20100
C550        C  0.09194081  0.17597019  0.28415277    -0.06700
C551        C  0.11793708  0.17771899  0.27102036     0.14200
C552        C  0.11977086  0.17935999  0.24251431    -0.20200
C553        C  0.09655714  0.17914831  0.22627072    -0.06700
C554        C  0.07079031  0.17782240  0.23947056     0.14100
C555        C  0.04439875  0.17738587  0.22416176    -0.23500
H556        H  0.04925743  0.17519008  0.27762854     0.15400
H557        H  0.13950860  0.18041812  0.23281002     0.15500
C558        C  0.14395249  0.17746263  0.28638784    -0.23500
H559        H  0.02657049  0.17630566  0.23799108     0.05700
H560        H  0.03312362  0.15697448  0.21054813     0.08900
H561        H  0.05272136  0.19851248  0.21226558     0.08900
H562        H  0.13528091  0.15593828  0.29775171     0.08900
H563        H  0.15506898  0.19741162  0.30053161     0.08900
H564        H  0.16196788  0.17885941  0.27262150     0.05700
C565        C  0.19455259  0.08893848  0.77054594    -0.20100
C566        C  0.17101069  0.09223903  0.78237676    -0.06700
C567        C  0.14780265  0.09152866  0.76551804     0.14200
C568        C  0.14850174  0.08720000  0.73736860    -0.20200
C569        C  0.17185470  0.08359470  0.72536368    -0.06700
C570        C  0.19553518  0.08499908  0.74226016     0.14100
C571        C  0.22130359  0.08133912  0.73093858    -0.23500
H572        H  0.21215249  0.08919004  0.78360510     0.15400
H573        H  0.13042328  0.08642739  0.72463269     0.15500
C574        C  0.12139808  0.09381431  0.77723193    -0.23500
H575        H  0.23684820  0.08159864  0.74724982     0.05700
H576        H  0.23526361  0.10039423  0.71716660     0.08900
H577        H  0.21187767  0.05928213  0.71966626     0.08900
H578        H  0.12998980  0.11624989  0.78761178     0.08900
H579        H  0.10913275  0.07533073  0.79201295     0.08900
H580        H  0.10465692  0.09163935  0.76124768     0.05700
C581        C  0.26526546  0.04974127  0.58879362    -0.20100
C582        C  0.25317609  0.04464922  0.61508796    -0.06700
C583        C  0.27026149  0.04259581  0.63691437     0.14200
C584        C  0.29977248  0.04743208  0.63227709    -0.20200
C585        C  0.31320498  0.05531563  0.60647289    -0.06700
C586        C  0.29528421  0.05539233  0.58421951     0.14100
C587        C  0.30831810  0.06347646  0.55618294    -0.23500
H588        H  0.25195753  0.05140278  0.57210205     0.15400
H589        H  0.31319983  0.04678308  0.64937772     0.15500
C590        C  0.25770083  0.03622334  0.66525548    -0.23500
H591        H  0.29139963  0.06321036  0.54134841     0.05700
H592        H  0.31502611  0.04673939  0.54903761     0.08900
H593        H  0.32869088  0.08668924  0.55653544     0.08900
H594        H  0.23595565  0.01410653  0.66533502     0.08900
H595        H  0.25328018  0.05459755  0.67233046     0.08900
H596        H  0.27392450  0.03496113  0.67994635     0.05700
C597        C  0.07424625  0.10985900  0.59366111    -0.20100
C598        C  0.08779171  0.10672584  0.61761837    -0.06700
C599        C  0.07948372  0.11417857  0.64296987     0.14200
C600        C  0.05566880  0.12103022  0.64378448    -0.20200
C601        C  0.04038594  0.12138252  0.62009278    -0.06700
C602        C  0.05050085  0.11695559  0.59461821     0.14100
C603        C  0.53862017  0.12227463  0.57258759    -0.23500
H604        H  0.08085184  0.10484063  0.57420668     0.15400
H605        H  0.04781933  0.12460980  0.66321476     0.15500
C606        C  0.09520578  0.11479275  0.66945503    -0.23500
H607        H  0.04522548  0.11327032  0.55048492     0.05700
H608        H  0.54114240  0.14537870  0.57270587     0.08900
H609        H  0.51400947  0.10492966  0.57017428     0.08900
H610        H  0.12040150  0.12921915  0.66752944     0.08900
H611        H  0.08926310  0.09138951  0.67532507     0.08900
H612        H  0.08802936  0.12446411  0.68636759     0.05700
C613        C  0.13495332  0.98528652  0.52328070    -0.20100
C614        C  0.13440089  0.01301572  0.52406415    -0.06700
C615        C  0.12250994  0.02043613  0.50103417     0.14200
C616        C  0.09845467  0.48533358  0.48914479    -0.20200
C617        C  0.11249895  0.46776871  0.48286843    -0.06700
C618        C  0.13798069  0.47234554  0.49912005     0.14100
C619        C  0.15459244  0.45475078  0.49444037    -0.23500
H620        H  0.14376972  0.97890125  0.54065982     0.15400
H621        H  0.07892920  0.48220862  0.47711370     0.15500
C622        C  0.12056722  0.04920628  0.50013176    -0.23500
H623        H  0.17335788  0.46093602  0.50959681     0.05700
H624        H  0.16511428  0.45977683  0.47406842     0.08900
H625        H  0.13839698  0.42994938  0.49620648     0.08900
H626        H  0.14385422  0.06936420  0.50225971     0.08900
H627        H  0.10588923  0.04936320  0.51676929     0.08900
H628        H  0.11046747  0.05119452  0.48062069     0.05700
C629        C  0.10625074  0.03982678  0.34669799    -0.20100
C630        C  0.12063620  0.03176333  0.36677167    -0.06700
C631        C  0.13354670  0.05049854  0.39014667     0.14200
C632        C  0.12942688  0.07571274  0.39405787    -0.20200
C633        C  0.11298357  0.08233115  0.37488902    -0.06700
C634        C  0.10241121  0.06517032  0.35043096     0.14100
C635        C  0.08524223  0.07235350  0.32914340    -0.23500
H636        H  0.09593022  0.02493075  0.32912517     0.15400
H637        H  0.13774507  0.08937357  0.41255703     0.15500
C638        C  0.14986047  0.04266663  0.41171257    -0.23500
H639        H  0.07802554  0.05617903  0.31156608     0.05700
H640        H  0.10013258  0.09569007  0.32147190     0.08900
H641        H  0.06437267  0.07096366  0.33803309     0.08900
H642        H  0.16994203  0.04246684  0.40275918     0.08900
H643        H  0.13419318  0.01983115  0.41992613     0.08900
H644        H  0.15809928  0.05943097  0.42888243     0.05700
C645        C  0.04203269  0.25692527  0.39142910    -0.20100
C646        C  0.06777547  0.25424623  0.39806258    -0.06700
C647        C  0.09519212  0.28061470  0.40695284     0.14200
C648        C  0.09615640  0.30874987  0.40849466    -0.20200
C649        C  0.07081408  0.31161286  0.40102236    -0.06700
C650        C  0.04316057  0.28528489  0.39288271     0.14100
C651        C  0.01460101  0.28678216  0.38630883    -0.23500
H652        H  0.02098724  0.23677432  0.38507703     0.15400
H653        H  0.11739151  0.32899182  0.41436430     0.15500
C654        C  0.12422498  0.27993693  0.41355298    -0.23500
H655        H  0.99459995  0.26375353  0.38240601     0.05700
H656        H  0.01785216  0.30032171  0.36780960     0.08900
H657        H  0.00907085  0.29731217  0.40367953     0.08900
H658        H  0.13041364  0.27003338  0.39612647     0.08900
H659        H  0.12113415  0.26638263  0.43202957     0.08900
H660        H  0.14387954  0.30310861  0.41774000     0.05700
C661        C  0.10519520  0.43780844  0.26506156    -0.20100
C662        C  0.09268200  0.41067436  0.27968857    -0.06700
C663        C  0.07677896  0.38250383  0.26498155     0.14200
C664        C  0.07387953  0.38251926  0.23643162    -0.20200
C665        C  0.08632688  0.40975272  0.22191905    -0.06700
C666        C  0.10205794  0.43781132  0.23668058     0.14100
C667        C  0.11415964  0.46809067  0.22302417    -0.23500
H668        H  0.11686648  0.45943919  0.27602410     0.15400
H669        H  0.06188792  0.36101237  0.22530845     0.15500
C670        C  0.06314887  0.35219490  0.27889842    -0.23500
H671        H  0.12327332  0.48740146  0.23790513     0.05700
H672        H  0.09520825  0.46819462  0.21142488     0.08900
H673        H  0.13315328  0.47215617  0.20931459     0.08900
H674        H  0.04407712  0.34916937  0.29205885     0.08900
H675        H  0.08105934  0.35088164  0.29121509     0.08900
H676        H  0.05359156  0.33283423  0.26405872     0.05700
C677        C  0.43238285  0.34034058  0.73990507    -0.20100
C678        C  0.40596321  0.31698445  0.72689370    -0.06700
C679        C  0.38526513  0.29163559  0.74226528     0.14200
C680        C  0.39090875  0.29104923  0.77027840    -0.20200
C681        C  0.41706811  0.31466547  0.78324871    -0.06700
C682        C  0.43823295  0.33945074  0.76776671     0.14100
C683        C  0.46617621  0.36583635  0.78083108    -0.23500
H684        H  0.44849323  0.35962953  0.72821995     0.15400
H685        H  0.37449729  0.27229621  0.78229886     0.15500
C686        C  0.35655053  0.26577064  0.72966958    -0.23500
H687        H  0.47980847  0.38373805  0.76594266     0.05700
H688        H  0.48118654  0.35774290  0.78971025     0.08900
H689        H  0.45912374  0.37638071  0.79708213     0.08900
H690        H  0.36259775  0.25368913  0.71410061     0.08900
H691        H  0.34253839  0.27470416  0.72015999     0.08900
H692        H  0.34227169  0.24878593  0.74499344     0.05700
C693        C  0.24293173  0.19144862  0.63235439    -0.20100
C694        C  0.23800571  0.17564806  0.60742591    -0.06700
C695        C  0.25618154  0.19125455  0.58500775     0.14200
C696        C  0.27997060  0.22165610  0.58862949    -0.20200
C697        C  0.28615122  0.23640702  0.61418189    -0.06700
C698        C  0.26693965  0.22141322  0.63607939     0.14100
C699        C  0.27222381  0.23677486  0.66358323    -0.23500
H700        H  0.22872721  0.17971185  0.64949904     0.15400
H701        H  0.29506143  0.23326635  0.57194121     0.15500
C702        C  0.25199985  0.17542786  0.55793780    -0.23500
H703        H  0.25465326  0.22200746  0.67833001     0.05700
H704        H  0.27121907  0.25813743  0.66168730     0.08900
H705        H  0.29500442  0.24226153  0.67193934     0.08900
H706        H  0.22867772  0.16791289  0.54965570     0.08900
H707        H  0.25513641  0.15531437  0.56034887     0.08900
H708        H  0.26882746  0.19072331  0.54293400     0.05700
C709        C  0.02466936  0.42460970  0.60407077    -0.20100
C710        C  0.00824733  0.40982084  0.62726056    -0.06700
C711        C  0.02365967  0.41706856  0.65291283     0.14200
C712        C  0.05429832  0.44060973  0.65489190    -0.20200
C713        C  0.06993188  0.45647810  0.63188845    -0.06700
C714        C  0.05525051  0.44800753  0.60610058     0.14100
C715        C  0.07577544  0.94436161  0.58599809    -0.23500
H716        H  0.01306180  0.41895576  0.58441789     0.15400
H717        H  0.06578977  0.44738332  0.67457821     0.15500
C718        C  0.00820752  0.40002557  0.67823815    -0.23500
H719        H  0.06257057  0.92822215  0.56912890     0.05700
H720        H  0.09553596  0.94115110  0.59105160     0.08900
H721        H  0.08424142  0.96784423  0.57859339     0.08900
H722        H  0.99862262  0.37517481  0.67468581     0.08900
H723        H  0.48881144  0.41357652  0.68470493     0.08900
H724        H  0.02453321  0.40700868  0.69574442     0.05700
C725        C  0.40905431  0.19821177  0.59304758    -0.20100
C726        C  0.43640097  0.20213860  0.60471390    -0.06700
C727        C  0.46001270  0.23185244  0.61173443     0.14200
C728        C  0.45481471  0.25663846  0.60859443    -0.20200
C729        C  0.42667217  0.25228252  0.59847293    -0.06700
C730        C  0.40394109  0.22284955  0.58974823     0.14100
C731        C  0.37355451  0.21650955  0.57782330    -0.23500
H732        H  0.39107722  0.17550611  0.58718164     0.15400
H733        H  0.47195002  0.27913803  0.61578388     0.15500
C734        C  0.99126622  0.24089491  0.61411978    -0.23500
H735        H  0.37032052  0.20582407  0.55733960     0.05700
H736        H  0.37184392  0.23742850  0.57554505     0.08900
H737        H  0.35473261  0.20059877  0.59103658     0.08900
H738        H  0.00077048  0.23200429  0.59853549     0.08900
H739        H  0.99031012  0.23010779  0.63389424     0.08900
H740        H  0.00715517  0.26579928  0.61650437     0.05700
C741        C  0.39053127  0.47041483  0.65046243    -0.20100
C742        C  0.38561840  0.47881522  0.62443843    -0.16300
C743        C  0.36884387  0.45528246  0.60488906     0.14200
C744        C  0.36119947  0.42510418  0.61081327    -0.20200
C745        C  0.36959168  0.41772969  0.63574009    -0.06700
C746        C  0.38236309  0.44030682  0.65643468     0.14100
C747        C  0.38795710  0.43344704  0.68497642    -0.23500
H748        H  0.40150784  0.48758719  0.66639541     0.15400
H749        H  0.35081725  0.40765514  0.59502017     0.15500
C750        C  0.35990511  0.46158079  0.57742609    -0.23500
H751        H  0.37644910  0.44126973  0.69953820     0.05700
H752        H  0.41292412  0.44567306  0.68963411     0.08900
H753        H  0.37861163  0.40873601  0.68823368     0.08900
H754        H  0.38070091  0.47704925  0.56597837     0.08900
H755        H  0.34515363  0.47202735  0.57995760     0.08900
H756        H  0.34674425  0.44037518  0.56503877     0.05700
C757        C  0.34008258  0.43827880  0.26911590    -0.20100
C758        C  0.32072080  0.40902388  0.27917153    -0.06700
C759        C  0.29966809  0.38585192  0.26129228     0.14200
C760        C  0.30011347  0.39205110  0.23349356    -0.20200
C761        C  0.32102809  0.42074087  0.22330355    -0.06700
C762        C  0.34038904  0.44452397  0.24147471     0.14100
C763        C  0.36100103  0.47661565  0.23199036    -0.23500
H764        H  0.35538720  0.45639597  0.28301517     0.15400
H765        H  0.28508888  0.37396519  0.21945060     0.15500
C766        C  0.27783996  0.35428820  0.27104085    -0.23500
H767        H  0.37269874  0.49267403  0.24931018     0.05700
H768        H  0.34723360  0.48473356  0.22073978     0.08900
H769        H  0.37906044  0.47750302  0.21866161     0.08900
H770        H  0.26165802  0.35521579  0.28567382     0.08900
H771        H  0.29084062  0.34448904  0.28099260     0.08900
H772        H  0.26406592  0.33874307  0.25402657     0.05700
C773        C  0.38937001  0.37618029  0.47834778    -0.20100
C774        C  0.36866613  0.38742830  0.47840182    -0.06700
C775        C  0.35623162  0.38961071  0.50332378     0.14200
C776        C  0.36367233  0.37931315  0.52709829    -0.20200
C777        C  0.38317864  0.36661066  0.52692060    -0.06700
C778        C  0.39690383  0.36593032  0.50218721     0.14100
C779        C  0.41847480  0.35338931  0.50042242    -0.23500
H780        H  0.39914216  0.37462622  0.45926575     0.15400
H781        H  0.35352670  0.38066832  0.54601331     0.15500
C782        C  0.33383867  0.40119839  0.50485768    -0.23500
H783        H  0.42618363  0.35368310  0.47933890     0.05700
H784        H  0.40685737  0.32941920  0.50727601     0.08900
H785        H  0.43916160  0.36743247  0.51327355     0.08900
H786        H  0.31364185  0.38705777  0.49148258     0.08900
H787        H  0.34506123  0.42529274  0.49840633     0.08900
H788        H  0.32548396  0.40024960  0.52582223     0.05700
C789        C  0.45137143  0.06737668  0.39695227    -0.20100
C790        C  0.46617778  0.07533730  0.37187496    -0.06700
C791        C  0.45440153  0.05447365  0.34993669     0.14200
C792        C  0.42904026  0.02549560  0.35391590    -0.20200
C793        C  0.41562909  0.01619658  0.37968017    -0.06700
C794        C  0.42629573  0.03808451  0.40125532     0.14100
C795        C  0.41278424  0.03056902  0.42919875    -0.23500
H796        H  0.46099863  0.08345646  0.41389535     0.15400
H797        H  0.42067032  0.00946532  0.33690036     0.15500
C798        C  0.46953512  0.06235722  0.32265325    -0.23500
H799        H  0.42432544  0.05039802  0.44346591     0.05700
H800        H  0.41543213  0.01175683  0.43776468     0.08900
H801        H  0.38816360  0.02384740  0.42807151     0.08900
H802        H  0.99627444  0.06618798  0.32444285     0.08900
H803        H  0.46966508  0.08295332  0.31484861     0.08900
H804        H  0.45731887  0.04353566  0.30751922     0.05700
C805        C  0.24061865  0.26731653  0.39270671    -0.20100
C806        C  0.24284924  0.29556794  0.39836834    -0.06700
C807        C  0.21884347  0.29656260  0.41228156     0.14200
C808        C  0.19204507  0.26919625  0.41795708    -0.20200
C809        C  0.18829328  0.24102140  0.40927004    -0.06700
C810        C  0.21348884  0.23997673  0.39768720     0.14100
C811        C  0.21189801  0.21014212  0.39042996    -0.23500
H812        H  0.25959991  0.26666990  0.38308197     0.15400
H813        H  0.17310552  0.26997836  0.42741939     0.15500
C814        C  0.22134065  0.32639640  0.42113585    -0.23500
H815        H  0.23441212  0.21360124  0.38369322     0.05700
H816        H  0.19523564  0.19832858  0.37356519     0.08900
H817        H  0.20505812  0.19532421  0.40847798     0.08900
H818        H  0.22276712  0.34006515  0.40315482     0.08900
H819        H  0.24208256  0.33944708  0.43421187     0.08900
H820        H  0.20115687  0.32284118  0.43296077     0.05700
C821        C  0.42837544  0.36727903  0.38947949    -0.20100
C822        C  0.42043020  0.37513773  0.36461779    -0.06700
C823        C  0.44096981  0.38402253  0.34281666     0.14200
C824        C  0.47013731  0.38753739  0.34724976    -0.20200
C825        C  0.47917536  0.38314789  0.37307472    -0.06700
C826        C  0.45777211  0.37159383  0.39408862     0.14100
C827        C  0.46608773  0.36435166  0.42140922    -0.23500
H828        H  0.41240021  0.36012917  0.40611589     0.15400
H829        H  0.48663350  0.39570454  0.33101505     0.15500
C830        C  0.43235692  0.39008853  0.31511703    -0.23500
H831        H  0.44614621  0.35435815  0.43507994     0.05700
H832        H  0.48449911  0.38538060  0.43135590     0.08900
H833        H  0.47409039  0.34758514  0.41881388     0.08900
H834        H  0.42849846  0.40985681  0.31602870     0.08900
H835        H  0.41115776  0.36964066  0.30760362     0.08900
H836        H  0.45067464  0.39530917  0.30018188     0.05700
C837        C  0.25001388  0.44415119  0.37058353    -0.20100
C838        C  0.25949196  0.43811234  0.39563174    -0.06700
C839        C  0.24412439  0.43823636  0.41941373     0.14200
C840        C  0.21799037  0.44149289  0.41710579    -0.20200
C841        C  0.20671238  0.44444532  0.39163647    -0.06700
C842        C  0.22380373  0.44708058  0.36816638     0.14100
C843        C  0.22276590  0.96655392  0.34478523    -0.23500
H844        H  0.26227650  0.44479826  0.35235224     0.15400
H845        H  0.20535872  0.44018513  0.43526057     0.15500
C846        C  0.25389100  0.43306397  0.44694211    -0.23500
H847        H  0.24281354  0.97425574  0.33134272     0.05700
H848        H  0.22025580  0.98671251  0.34960008     0.08900
H849        H  0.20233592  0.94920623  0.33324535     0.08900
H850        H  0.27765300  0.45137602  0.45171045     0.08900
H851        H  0.25279357  0.41057285  0.44715072     0.08900
H852        H  0.23889641  0.43333088  0.46324262     0.05700
Zn853      Zn  0.29687701  0.88590074  0.36395041     1.49700
Zn854      Zn  0.34050638  0.93002651  0.41283031     1.49400
Zn855      Zn  0.33622461  0.86498784  0.39670700     1.49100
Zn856      Zn  0.36770657  0.92015480  0.35806635     1.49500
O857        O  0.33525573  0.90065350  0.38344313    -1.84000
O858        O  0.27911243  0.91152130  0.37461736    -0.74600
O859        O  0.35169914  0.91611195  0.44895998    -0.74400
O860        O  0.29446441  0.82686736  0.39660091    -0.73900
O861        O  0.30145326  0.93392182  0.41413971    -0.74600
O862        O  0.26637600  0.84338709  0.37547867    -0.74200
O863        O  0.34978728  0.87318684  0.43492305    -0.74800
O864        O  0.39637225  0.90407287  0.36074215    -0.74200
O865        O  0.37523106  0.97328107  0.40350753    -0.74900
O866        O  0.36934969  0.85901535  0.38015346    -0.74300
O867        O  0.39152210  0.96472841  0.36462666    -0.74800
O868        O  0.35203584  0.91512165  0.32041672    -0.74700
O869        O  0.30144518  0.88926064  0.32311990    -0.74500
C870        C  0.28115469  0.92751918  0.39543729     0.77300
C871        C  0.35525217  0.89304280  0.45334936     0.77800
C872        C  0.26857587  0.82296997  0.38862822     0.76700
C873        C  0.39372170  0.87923421  0.36917160     0.77100
C874        C  0.39275679  0.98311596  0.38301980     0.78300
C875        C  0.32566026  0.90317692  0.30924459     0.77300
Zn876      Zn  0.40996901  0.86252896  0.65037477     1.49700
Zn877      Zn  0.37394978  0.79161043  0.64221925     1.49400
Zn878      Zn  0.35363188  0.83165017  0.60918976     1.49100
Zn879      Zn  0.41769964  0.83409405  0.59427893     1.49500
O880        O  0.38914587  0.82993288  0.62369344    -1.84000
O881        O  0.40663870  0.84714094  0.68862678    -0.74600
O882        O  0.32916893  0.76352244  0.63441544    -0.74400
O883        O  0.34990567  0.86682261  0.62497192    -0.73900
O884        O  0.38301018  0.79696274  0.68256088    -0.74600
O885        O  0.39487497  0.89240757  0.64672824    -0.74200
O886        O  0.31450940  0.79025478  0.60890050    -0.74800
O887        O  0.40546678  0.84822454  0.55903612    -0.74200
O888        O  0.39375185  0.76933782  0.62702946    -0.74900
O889        O  0.36151045  0.84481054  0.57114021    -0.74300
O890        O  0.41905582  0.79390400  0.59016389    -0.74800
O891        O  0.46151214  0.86690740  0.60470917    -0.74700
O892        O  0.45481751  0.88547924  0.64332655    -0.74500
C893        C  0.39640028  0.82046400  0.69800071     0.77300
C894        C  0.30912941  0.76537685  0.61987413     0.77800
C895        C  0.37094483  0.89112196  0.63635497     0.76700
C896        C  0.38244812  0.85184511  0.55387655     0.77100
C897        C  0.40938351  0.77131571  0.60623601     0.78300
C898        C  0.47238797  0.88514815  0.62513886     0.77300
Zn899      Zn  0.06408044  0.88755647  0.36059687     1.49700
Zn900      Zn  0.10947361  0.91066493  0.41214390     1.49400
Zn901      Zn  0.12686797  0.94969829  0.35739856     1.49100
Zn902      Zn  0.07370440  0.94338781  0.39606029     1.49500
O903        O  0.09395103  0.92273567  0.38132503    -1.84000
O904        O  0.06336651  0.85031997  0.37407488    -0.74600
O905        O  0.15322717  0.92309657  0.40549271    -0.74400
O906        O  0.11499273  0.93586964  0.31749388    -0.73900
O907        O  0.08698865  0.86427044  0.41449324    -0.74600
O908        O  0.07195265  0.89184904  0.32052633    -0.74200
O909        O  0.16663332  0.95053851  0.36814079    -0.74800
O910        O  0.08678184  0.98121920  0.37604362    -0.74200
O911        O  0.11116351  0.93408980  0.44702372    -0.74900
O912        O  0.13135002  0.49274381  0.36691211    -0.74300
O913        O  0.08738000  0.95881841  0.43425209    -0.74800
O914        O  0.02803754  0.91821772  0.39329588    -0.74700
O915        O  0.02195144  0.88115883  0.36481765    -0.74500
C916        C  0.07169077  0.84382646  0.39630867     0.77300
C917        C  0.17328330  0.93872807  0.38803092     0.77800
C918        C  0.09247567  0.91245944  0.30614287     0.76700
C919        C  0.11220067  0.49966390  0.37682772     0.77100
C920        C  0.10280600  0.95372929  0.45191962     0.78300
C921        C  0.01104415  0.89467484  0.37881068     0.77300
Zn922      Zn  0.19918887  0.58705828  0.64018136     1.49700
Zn923      Zn  0.15972650  0.52456808  0.61100581     1.49400
Zn924      Zn  0.12889712  0.55264345  0.64688012     1.49100
Zn925      Zn  0.15613048  0.58393848  0.58974761     1.49500
O926        O  0.16088464  0.56236050  0.62138720    -1.84000
O927        O  0.22970983  0.57468484  0.62810525    -0.74600
O928        O  0.12176096  0.98772583  0.62483706    -0.74400
O929        O  0.14458056  0.56538547  0.68503799    -0.73900
O930        O  0.20083339  0.52649717  0.61415303    -0.74600
O931        O  0.19511321  0.58737120  0.68135744    -0.74200
O932        O  0.09785510  0.50840739  0.64376800    -0.74800
O933        O  0.12146292  0.59361319  0.59673860    -0.74200
O934        O  0.14986656  0.51774787  0.57206447    -0.74900
O935        O  0.10741121  0.57507372  0.63786475    -0.74300
O936        O  0.14578108  0.55609739  0.55484432    -0.74800
O937        O  0.19444151  0.62711977  0.58777904    -0.74700
O938        O  0.21517618  0.62953404  0.62863493    -0.74500
C939        C  0.22698851  0.54989928  0.61858758     0.77300
C940        C  0.09769150  0.98665090  0.63421301     0.77800
C941        C  0.17132116  0.57906502  0.69566482     0.76700
C942        C  0.10567525  0.58989934  0.61800877     0.77100
C943        C  0.14414501  0.53001152  0.55222123     0.78300
C944        C  0.21315457  0.64232888  0.60724167     0.77300
Zn945      Zn  0.08686160  0.68563971  0.41801119     1.49700
Zn946      Zn  0.04480830  0.66701147  0.36307925     1.49400
Zn947      Zn  0.10737715  0.66532232  0.36455336     1.49100
Zn948      Zn  0.05198656  0.61901907  0.39848042     1.49500
O949        O  0.07297035  0.65999432  0.38557982    -1.84000
O950        O  0.07778074  0.71895931  0.41226624    -0.74600
O951        O  0.05815404  0.67189549  0.32277495    -0.74400
O952        O  0.14537247  0.70027677  0.37979935    -0.73900
O953        O  0.04722801  0.70701616  0.37600033    -0.74600
O954        O  0.13394001  0.70842905  0.42158212    -0.74200
O955        O  0.10303779  0.67356014  0.32556443    -0.74800
O956        O  0.07810498  0.59938816  0.39571482    -0.74200
O957        O  0.49902252  0.62949526  0.36910122    -0.74900
O958        O  0.11286926  0.62874077  0.36578566    -0.74300
O959        O  0.51427669  0.59589436  0.37789362    -0.74800
O960        O  0.03391770  0.61599220  0.43567238    -0.74700
O961        O  0.06045096  0.66363371  0.45095382    -0.74500
C962        C  0.06242379  0.72528649  0.39564176     0.77300
C963        C  0.08249012  0.67510677  0.31158756     0.77800
C964        C  0.15328929  0.71425581  0.40261585     0.76700
C965        C  0.10031751  0.60495679  0.38011083     0.77100
C966        C  0.49315437  0.60219527  0.37344113     0.78300
C967        C  0.03863297  0.63624771  0.45358072     0.77300
Zn968      Zn  0.40279126  0.56495682  0.58624548     1.49700
Zn969      Zn  0.40042480  0.60555318  0.63608667     1.49400
Zn970      Zn  0.44103467  0.57613551  0.64115169     1.49100
Zn971      Zn  0.46034360  0.63138387  0.60220569     1.49500
O972        O  0.42596497  0.59435802  0.61593835    -1.84000
O973        O  0.36042472  0.56201221  0.58272491    -0.74600
O974        O  0.40318374  0.60234032  0.67704073    -0.74400
O975        O  0.41773880  0.53093177  0.63669791    -0.73900
O976        O  0.35759247  0.57819346  0.62448260    -0.74600
O977        O  0.39212141  0.52177754  0.59775736    -0.74200
O978        O  0.43481346  0.58392579  0.67989070    -0.74800
O979        O  0.00392338  0.63765793  0.61241863    -0.74200
O980        O  0.40941490  0.64753847  0.62567741    -0.74900
O981        O  0.48532444  0.59179344  0.63434782    -0.74300
O982        O  0.45398567  0.66834745  0.60466798    -0.74800
O983        O  0.46437287  0.62485258  0.56333419    -0.74700
O984        O  0.42910786  0.57785218  0.55077545    -0.74500
C985        C  0.34520284  0.56521355  0.60197000     0.77300
C986        C  0.41821183  0.59312229  0.69126146     0.77800
C987        C  0.39905442  0.51216700  0.61908406     0.76700
C988        C  0.00790154  0.61700266  0.62319845     0.77100
C989        C  0.43091096  0.66983739  0.61335283     0.78300
C990        C  0.45304728  0.60341707  0.54570438     0.77300
Zn991      Zn  0.12993212  0.67745280  0.14368889     1.49700
Zn992      Zn  0.07451686  0.62951652  0.10538596     1.49400
Zn993      Zn  0.06686279  0.67794904  0.13886809     1.49100
Zn994      Zn  0.11073406  0.69701187  0.08729922     1.49500
O995        O  0.09605833  0.67096283  0.11903466    -1.84000
O996        O  0.13637073  0.64043052  0.14070756    -0.74600
O997        O  0.02966994  0.60838640  0.11187212    -0.74400
O998        O  0.07663791  0.68400615  0.17862481    -0.73900
O999        O  0.09104801  0.60610920  0.12294755    -0.74600
O1000       O  0.11887153  0.68086793  0.18364399    -0.74200
O1001       O  0.02427759  0.64208406  0.13705002    -0.74800
O1002       O  0.08830700  0.72155415  0.08365071    -0.74200
O1003       O  0.08281409  0.62536360  0.06648530    -0.74900
O1004       O  0.06553298  0.71358724  0.12369271    -0.74300
O1005       O  0.11105027  0.67298771  0.05318591    -0.74800
O1006       O  0.15469171  0.72849988  0.09397548    -0.74700
O1007       O  0.16898010  0.71634193  0.13245014    -0.74500
C1008       C  0.11700573  0.61320469  0.13318828     0.77300
C1009       C  0.01321449  0.61608533  0.12553594     0.77800
C1010       C  0.09657199  0.68286711  0.19383668     0.76700
C1011       C  0.07341859  0.72759009  0.10132431     0.77100
C1012       C  0.09925226  0.64432656  0.04876742     0.78300
C1013       C  0.17503669  0.73394328  0.11215135     0.77300
Zn1014     Zn  0.11581086  0.56733736  0.90111594     1.49700
Zn1015     Zn  0.18399794  0.60189533  0.91706096     1.49400
Zn1016     Zn  0.16208425  0.56085841  0.86360788     1.49100
Zn1017     Zn  0.16172159  0.62380468  0.86457119     1.49500
O1018       O  0.15611425  0.58891542  0.88608792    -1.84000
O1019       O  0.11513329  0.57950313  0.94015094    -0.74600
O1020       O  0.20733584  0.57880107  0.91894832    -0.74400
O1021       O  0.12643032  0.51853460  0.86435496    -0.73900
O1022       O  0.16416678  0.60533896  0.95175381    -0.74600
O1023       O  0.09612020  0.52175072  0.89528154    -0.74200
O1024       O  0.19839089  0.55896674  0.87693609    -0.74800
O1025       O  0.16607060  0.61612356  0.82413620    -0.74200
O1026       O  0.21650522  0.64405485  0.91099235    -0.74900
O1027       O  0.16868666  0.57358274  0.82493739    -0.74300
O1028       O  0.20157324  0.66217898  0.87698799    -0.74800
O1029       O  0.12368384  0.62854030  0.86902223    -0.74700
O1030       O  0.09024581  0.58208907  0.88368620    -0.74500
C1031       C  0.13627303  0.59662297  0.95694789     0.77300
C1032       C  0.21321096  0.56582811  0.89936108     0.77800
C1033       C  0.10260022  0.50624998  0.87876365     0.76700
C1034       C  0.16907483  0.59535150  0.81189225     0.77100
C1035       C  0.22127156  0.66573091  0.89536792     0.78300
C1036       C  0.09659212  0.60834075  0.87553499     0.77300
Zn1037     Zn  0.04683921  0.87825380  0.13398820     1.49700
Zn1038     Zn  0.05562475  0.93539291  0.10037915     1.49400
Zn1039     Zn  0.11007051  0.94000843  0.13485260     1.49100
Zn1040     Zn  0.08855497  0.90131353  0.08023968     1.49500
O1041       O  0.07516930  0.91321950  0.11262097    -1.84000
O1042       O  0.50435300  0.87243193  0.13647389    -0.74600
O1043       O  0.08277459  0.98062760  0.10651774    -0.74400
O1044       O  0.10440863  0.92780870  0.17351338    -0.73900
O1045       O  0.51442349  0.91822470  0.12216397    -0.74600
O1046       O  0.05855798  0.88670115  0.17504170    -0.74200
O1047       O  0.11849554  0.98282351  0.13486512    -0.74800
O1048       O  0.13545752  0.92542419  0.07736341    -0.74200
O1049       O  0.03953459  0.92392786  0.06180811    -0.74900
O1050       O  0.14711492  0.94131829  0.12051934    -0.74300
O1051       O  0.06225668  0.89865347  0.04706715    -0.74800
O1052       O  0.07948745  0.85878594  0.08505321    -0.74700
O1053       O  0.04964500  0.84073702  0.12091668    -0.74500
C1054       C  0.49583977  0.89170144  0.13049738     0.77300
C1055       C  0.10616723  0.99566879  0.12201294     0.77800
C1056       C  0.08269843  0.90753809  0.18713013     0.76700
C1057       C  0.15485282  0.93711222  0.09708353     0.77100
C1058       C  0.04268312  0.90754931  0.04376212     0.78300
C1059       C  0.06443565  0.83733914  0.10138268     0.77300
Zn1060     Zn  0.45261242  0.82172807  0.86543010     1.49700
Zn1061     Zn  0.44180007  0.86858139  0.89942766     1.49400
Zn1062     Zn  0.38828188  0.81926235  0.86470083     1.49100
Zn1063     Zn  0.41081373  0.80103001  0.91867463     1.49500
O1064       O  0.42314276  0.82695976  0.88700550    -1.84000
O1065       O  0.99667414  0.86137317  0.86913961    -0.74600
O1066       O  0.41530368  0.88741705  0.89352769    -0.74400
O1067       O  0.39402271  0.81188078  0.82612610    -0.73900
O1068       O  0.47993983  0.89310147  0.87941985    -0.74600
O1069       O  0.44126283  0.81884575  0.82489943    -0.74200
O1070       O  0.38061906  0.85462000  0.86407078    -0.74800
O1071       O  0.36364260  0.77702689  0.92049208    -0.74200
O1072       O  0.45703395  0.87334333  0.93793555    -0.74900
O1073       O  0.35118530  0.78386532  0.87866113    -0.74300
O1074       O  0.43525744  0.82588786  0.95262532    -0.74800
O1075       O  0.42294745  0.76885789  0.91342196    -0.74700
O1076       O  0.45254452  0.78301318  0.87723904    -0.74500
C1077       C  0.00204827  0.88849387  0.87390859     0.77300
C1078       C  0.39288696  0.87983025  0.87710259     0.77800
C1079       C  0.41671457  0.81443512  0.81290235     0.76700
C1080       C  0.34381247  0.77032098  0.90127366     0.77100
C1081       C  0.45389454  0.85441428  0.95618090     0.78300
C1082       C  0.43925357  0.76430034  0.89639566     0.77300
Zn1083     Zn  0.33862522  0.97097439  0.10724104     1.49700
Zn1084     Zn  0.29939402  0.91071570  0.13870555     1.49400
Zn1085     Zn  0.34033409  0.90959302  0.09011798     1.49100
Zn1086     Zn  0.37030927  0.94654816  0.14589673     1.49500
O1087       O  0.33729247  0.93412290  0.12004039    -1.84000
O1088       O  0.29674339  0.96730791  0.10611185    -0.74600
O1089       O  0.28131396  0.86730664  0.12816939    -0.74400
O1090       O  0.35193511  0.93523690  0.05457559    -0.73900
O1091       O  0.26900621  0.92282256  0.12622392    -0.74600
O1092       O  0.35280320  0.97747956  0.06935532    -0.74200
O1093       O  0.30038516  0.86753319  0.08746275    -0.74800
O1094       O  0.39198462  0.92321167  0.13962268    -0.74200
O1095       O  0.30440293  0.91322068  0.17946216    -0.74900
O1096       O  0.37372746  0.89899116  0.10017159    -0.74300
O1097       O  0.35500099  0.93776684  0.18362898    -0.74800
O1098       O  0.40009648  0.99122102  0.14280652    -0.74700
O1099       O  0.36713786  0.50778444  0.12588774    -0.74500
C1100       C  0.27099588  0.94531578  0.11317401     0.77300
C1101       C  0.28152691  0.85353901  0.10651027     0.77800
C1102       C  0.35690522  0.96241913  0.05072265     0.76700
C1103       C  0.39152496  0.90546347  0.12089277     0.77100
C1104       C  0.32865312  0.92437758  0.19413792     0.78300
C1105       C  0.39220390  0.51246156  0.13668330     0.77300
Zn1106     Zn  0.38299354  0.58756269  0.86317741     1.49700
Zn1107     Zn  0.41639886  0.55088883  0.85628729     1.49400
Zn1108     Zn  0.42215898  0.58521837  0.91350356     1.49100
Zn1109     Zn  0.35964064  0.52539992  0.89353376     1.49500
O1110       O  0.39550812  0.56243237  0.88207196    -1.84000
O1111       O  0.38738466  0.58750715  0.82213105    -0.74600
O1112       O  0.46098737  0.57506689  0.86358425    -0.74400
O1113       O  0.42477086  0.62731402  0.91796978    -0.73900
O1114       O  0.41079832  0.56037868  0.81804088    -0.74600
O1115       O  0.40839335  0.63020926  0.87651887    -0.74200
O1116       O  0.46591917  0.59677022  0.90412868    -0.74800
O1117       O  0.36563648  0.51853894  0.93206278    -0.74200
O1118       O  0.40296060  0.50660280  0.85972395    -0.74900
O1119       O  0.40851885  0.55783763  0.94797989    -0.74300
O1120       O  0.35443414  0.98646818  0.87611694    -0.74800
O1121       O  0.32156810  0.52950710  0.89216846    -0.74700
O1122       O  0.34024507  0.57512967  0.87356341    -0.74500
C1123       C  0.39989452  0.57592867  0.80749602     0.77300
C1124       C  0.47765827  0.59212868  0.88297827     0.77800
C1125       C  0.42152493  0.64271183  0.89900481     0.76700
C1126       C  0.38516144  0.53132755  0.95122288     0.77100
C1127       C  0.37484736  0.98179514  0.86568252     0.78300
C1128       C  0.31865714  0.55213238  0.88502803     0.77300
C1129       C  0.35376363  0.48381026  0.97748919    -0.20100
C1130       C  0.37970516  0.51345235  0.97691616    -0.06700
C1131       C  0.39908796  0.52405304  0.00032910     0.14200
C1132       C  0.39231583  0.00777477  0.02405753    -0.20200
C1133       C  0.36720121  0.97786195  0.02423154    -0.06700
C1134       C  0.34938650  0.96587634  0.00038231     0.14100
C1135       C  0.32189557  0.93425760  0.99957778    -0.23500
H1136       H  0.33850468  0.47496058  0.95997649     0.15400
H1137       H  0.40569484  0.01716646  0.04261692     0.15500
C1138       C  0.42770951  0.55480734  0.00146119    -0.23500
H1139       H  0.31006402  0.92854663  0.97943045     0.05700
H1140       H  0.30522001  0.93244684  0.01510953     0.08900
H1141       H  0.32922738  0.91725750  0.00373303     0.08900
H1142       H  0.42177337  0.57303243  0.99858061     0.08900
H1143       H  0.44367712  0.55603338  0.98545909     0.08900
H1144       H  0.43993726  0.55914668  0.02130757     0.05700
C1145       C  0.37781518  0.93860923  0.84433392    -0.20100
C1146       C  0.37186819  0.95133096  0.86732622    -0.06700
C1147       C  0.36915046  0.93780105  0.89295160     0.14200
C1148       C  0.37435100  0.91316093  0.89523761    -0.20200
C1149       C  0.38183994  0.90148327  0.87256204    -0.06700
C1150       C  0.38245674  0.91348355  0.84659321     0.14100
C1151       C  0.38994306  0.90115282  0.82157956    -0.23500
H1152       H  0.38018228  0.94921836  0.82480379     0.15400
H1153       H  0.37389734  0.90376217  0.91504828     0.15500
C1154       C  0.35099019  0.44221657  0.91431361    -0.23500
H1155       H  0.39032857  0.91379317  0.80312559     0.05700
H1156       H  0.37237968  0.87685567  0.81823041     0.08900
H1157       H  0.41282027  0.90309859  0.82409711     0.08900
H1158       H  0.32928176  0.44075559  0.90720205     0.08900
H1159       H  0.36675743  0.46541833  0.92255596     0.08900
H1160       H  0.34541230  0.42592823  0.93116857     0.05700
C1161       C  0.43166671  0.71909587  0.92295503    -0.20100
C1162       C  0.44121801  0.73576304  0.89867632    -0.06700
C1163       C  0.44941139  0.72312719  0.87659943     0.14200
C1164       C  0.44514116  0.69359367  0.87860927    -0.20200
C1165       C  0.43279339  0.67594295  0.90183211    -0.06700
C1166       C  0.42737224  0.68940345  0.92480620     0.14100
C1167       C  0.41543051  0.67204059  0.95067548    -0.23500
H1168       H  0.42618965  0.72878675  0.94030825     0.15400
H1169       H  0.45000175  0.68345341  0.86118864     0.15500
C1170       C  0.46110727  0.73953822  0.85019890    -0.23500
H1171       H  0.41190734  0.68581641  0.96646765     0.05700
H1172       H  0.43212651  0.66573329  0.95891415     0.08900
H1173       H  0.39313225  0.65107420  0.94662072     0.08900
H1174       H  0.98910172  0.76332939  0.85632790     0.08900
H1175       H  0.44361759  0.74394315  0.84065123     0.08900
H1176       H  0.97451201  0.72887521  0.83650190     0.05700
C1177       C  0.48498501  0.89666667  0.98951688    -0.20100
C1178       C  0.47435529  0.86633251  0.98086529    -0.06700
C1179       C  0.98672084  0.85068430  0.99165867     0.14200
C1180       C  0.00989526  0.86518823  0.01169440    -0.20200
C1181       C  0.02059610  0.89550370  0.02017655    -0.06700
C1182       C  0.50717660  0.91062741  0.01048207     0.14100
C1183       C  0.51764297  0.94329946  0.01832000    -0.23500
H1184       H  0.47596806  0.90970011  0.97963226     0.15400
H1185       H  0.01931623  0.85237307  0.02131509     0.15500
C1186       C  0.97698319  0.81818360  0.98374243    -0.23500
H1187       H  0.50716780  0.95335496  0.00496444     0.05700
H1188       H  0.54290875  0.95722471  0.01656017     0.08900
H1189       H  0.51088613  0.94470878  0.03943771     0.08900
H1190       H  0.98119602  0.81667641  0.96183108     0.08900
H1191       H  0.95231655  0.80324458  0.98802598     0.08900
H1192       H  0.98990086  0.80933998  0.99533803     0.05700
C1193       C  0.44869403  0.87862417  0.10529843    -0.20100
C1194       C  0.46347366  0.88366281  0.13069045    -0.06700
C1195       C  0.45097315  0.89017944  0.15347664     0.14200
C1196       C  0.42564548  0.89447283  0.14987784    -0.20200
C1197       C  0.41298005  0.89318650  0.12382128    -0.06700
C1198       C  0.42358881  0.88327851  0.10146170     0.14100
C1199       C  0.41026215  0.87952372  0.07320044    -0.23500
H1200       H  0.45864113  0.87371710  0.08783604     0.15400
H1201       H  0.41696219  0.90076868  0.16739180     0.15500
C1202       C  0.46556154  0.89445822  0.18122649    -0.23500
H1203       H  0.42170229  0.87187358  0.05838939     0.05700
H1204       H  0.41320761  0.90159381  0.06613266     0.08900
H1205       H  0.38557568  0.86207467  0.07311690     0.08900
H1206       H  0.98987602  0.91398487  0.17638144     0.08900
H1207       H  0.46573132  0.87334053  0.18693093     0.08900
H1208       H  0.45289232  0.89944409  0.19696421     0.05700
C1209       C  0.19062130  0.91889124  0.08635850    -0.20100
C1210       C  0.18656235  0.94328004  0.09435090    -0.06700
C1211       C  0.21171317  0.97007597  0.10548442     0.14200
C1212       C  0.23965259  0.97079153  0.11030889    -0.20200
C1213       C  0.24251833  0.94500386  0.10510822    -0.06700
C1214       C  0.21807017  0.91910192  0.09210408     0.14100
C1215       C  0.22061641  0.89146965  0.08438214    -0.23500
H1216       H  0.17147709  0.89864200  0.07752070     0.15400
H1217       H  0.25877311  0.99092882  0.11943763     0.15500
C1218       C  0.20910214  0.99783406  0.11241974    -0.23500
H1219       H  0.19996139  0.87415762  0.07303113     0.05700
H1220       H  0.22306029  0.88041548  0.10285606     0.08900
H1221       H  0.24075085  0.89832797  0.07123754     0.08900
H1222       H  0.19246324  0.99283559  0.12889763     0.08900
H1223       H  0.20149833  0.00512667  0.09413031     0.08900
H1224       H  0.23140236  0.01721486  0.11948671     0.05700
C1225       C  0.27305402  0.69472348  0.91705718    -0.20100
C1226       C  0.25119244  0.69469829  0.89877733    -0.06700
C1227       C  0.25936138  0.72143805  0.88391935     0.14200
C1228       C  0.28912211  0.74647456  0.88695571    -0.20200
C1229       C  0.31144674  0.74559256  0.90386991    -0.06700
C1230       C  0.30298088  0.71942189  0.91952881     0.14100
C1231       C  0.32559627  0.71638369  0.93772485    -0.23500
H1232       H  0.26724519  0.67465784  0.92886346     0.15400
H1233       H  0.29539248  0.76661990  0.87507878     0.15500
C1234       C  0.23743137  0.72391189  0.86440997    -0.23500
H1235       H  0.31511215  0.69390496  0.94774450     0.05700
H1236       H  0.33410010  0.73422374  0.95397306     0.08900
H1237       H  0.34509805  0.71859558  0.92560870     0.08900
H1238       H  0.21649777  0.71984320  0.87523717     0.08900
H1239       H  0.23128876  0.70712382  0.84745767     0.08900
H1240       H  0.24761891  0.74685784  0.85530209     0.05700
C1241       C  0.07279427  0.96053358  0.85469269    -0.20100
C1242       C  0.08303708  0.97391480  0.88064257    -0.06700
C1243       C  0.06994748  0.95632431  0.90397012     0.14200
C1244       C  0.04534241  0.92661816  0.90074760    -0.20200
C1245       C  0.03331801  0.91434312  0.87492132    -0.06700
C1246       C  0.04757168  0.93101237  0.85158236     0.14100
C1247       C  0.53031387  0.91891535  0.82394168    -0.23500
H1248       H  0.08305001  0.97400790  0.83683075     0.15400
H1249       H  0.03397200  0.91362997  0.91857924     0.15500
C1250       C  0.08145112  0.96876581  0.93226728    -0.23500
H1251       H  0.54320055  0.93581446  0.80807648     0.05700
H1252       H  0.50655335  0.91501303  0.82391621     0.08900
H1253       H  0.52975736  0.89725564  0.81855598     0.08900
H1254       H  0.07717789  0.98781661  0.93703642     0.08900
H1255       H  0.10637573  0.97689255  0.93392772     0.08900
H1256       H  0.06970347  0.95112598  0.94787788     0.05700
C1257       C  0.23559731  0.53214727  0.89435508    -0.20100
C1258       C  0.23964447  0.56099055  0.90111688    -0.06700
C1259       C  0.26948323  0.58615692  0.90403593     0.14200
C1260       C  0.29456737  0.58203135  0.89931356    -0.20200
C1261       C  0.29070004  0.55344975  0.89161299    -0.06700
C1262       C  0.26083522  0.52792825  0.88990545     0.14100
C1263       C  0.25531884  0.49667399  0.88213739    -0.23500
H1264       H  0.21254606  0.51308657  0.89166297     0.15400
H1265       H  0.31748056  0.60153300  0.90109773     0.15500
C1266       C  0.27498557  0.61780431  0.91035965    -0.23500
H1267       H  0.23047984  0.47977891  0.88055766     0.05700
H1268       H  0.26554559  0.48860516  0.89778937     0.08900
H1269       H  0.26567112  0.49742210  0.86213667     0.08900
H1270       H  0.26531228  0.61818496  0.93043320     0.08900
H1271       H  0.26398547  0.62478140  0.89446281     0.08900
H1272       H  0.29978951  0.63495344  0.91110994     0.05700
C1273       C  0.02798794  0.61040070  0.90078309    -0.20100
C1274       C  0.01012102  0.60252465  0.87686065    -0.06700
C1275       C  0.02447531  0.60492491  0.85147803     0.14200
C1276       C  0.05489675  0.61087202  0.85120198    -0.20200
C1277       C  0.07116393  0.61475427  0.87545767    -0.06700
C1278       C  0.05827288  0.61628428  0.90038035     0.14100
C1279       C  0.07592672  0.62239052  0.92680449    -0.23500
H1280       H  0.01763906  0.60977468  0.92014751     0.15400
H1281       H  0.06513118  0.61002924  0.83215779     0.15500
C1282       C  0.00806825  0.60078813  0.82458739    -0.23500
H1283       H  0.06278971  0.62363304  0.94431515     0.05700
H1284       H  0.09768249  0.64441667  0.92579134     0.08900
H1285       H  0.08110640  0.60386184  0.93068693     0.08900
H1286       H  0.50205485  0.62598052  0.83076441     0.08900
H1287       H  0.49307822  0.58696495  0.82402385     0.08900
H1288       H  0.02392039  0.60663709  0.80726399     0.05700
C1289       C  0.42791333  0.55701840  0.11125459    -0.20100
C1290       C  0.41878859  0.54326235  0.13662647    -0.06700
C1291       C  0.43813047  0.55636852  0.15960748     0.14200
C1292       C  0.46724563  0.58183686  0.15619571    -0.20200
C1293       C  0.47744637  0.59356288  0.13026469    -0.06700
C1294       C  0.45722370  0.58184359  0.10769279     0.14100
C1295       C  0.46612361  0.59435811  0.07953190    -0.23500
H1296       H  0.41294096  0.54690444  0.09361300     0.15400
H1297       H  0.48284068  0.59135217  0.17350735     0.15500
C1298       C  0.43208131  0.04675859  0.18532487    -0.23500
H1299       H  0.46554561  0.57649429  0.06583321     0.05700
H1300       H  0.48931503  0.61466678  0.07887604     0.08900
H1301       H  0.44960653  0.60114932  0.07176067     0.08900
H1302       H  0.42868466  0.02341154  0.18707513     0.08900
H1303       H  0.41018303  0.04623575  0.18959883     0.08900
H1304       H  0.44923261  0.06145993  0.20103929     0.05700
C1305       C  0.21176621  0.77876581  0.08511473    -0.20100
C1306       C  0.20572369  0.76210559  0.10938728    -0.06700
C1307       C  0.22811409  0.77415065  0.13061124     0.14200
C1308       C  0.25403184  0.80312244  0.12781742    -0.20200
C1309       C  0.25854816  0.82061586  0.10452937    -0.06700
C1310       C  0.23771751  0.80782280  0.08249962     0.14100
C1311       C  0.24169539  0.82544806  0.05692766    -0.23500
H1312       H  0.19540871  0.76966616  0.06835076     0.15400
H1313       H  0.27029945  0.81296343  0.14461888     0.15500
C1314       C  0.22468956  0.75757419  0.15677362    -0.23500
H1315       H  0.22290829  0.81232118  0.04191606     0.05700
H1316       H  0.26364746  0.83078137  0.04731831     0.08900
H1317       H  0.24179982  0.84699315  0.06181481     0.08900
H1318       H  0.22291052  0.73514760  0.15240355     0.08900
H1319       H  0.20405732  0.75439410  0.16758410     0.08900
H1320       H  0.24467093  0.77044398  0.17072851     0.05700
C1321       C  0.08978920  0.77916332  0.08417097    -0.20100
C1322       C  0.06740417  0.75325328  0.09716631    -0.06700
C1323       C  0.04216340  0.75415027  0.10886101     0.14200
C1324       C  0.04130066  0.78153649  0.10894849    -0.20200
C1325       C  0.06493500  0.80820272  0.09778528    -0.06700
C1326       C  0.08917399  0.80662958  0.08446350     0.14100
C1327       C  0.11567914  0.83399324  0.07189042    -0.23500
H1328       H  0.10905453  0.77850175  0.07514260     0.15400
H1329       H  0.02230107  0.78227564  0.11843989     0.15500
C1330       C  0.01587909  0.72639904  0.12118296    -0.23500
H1331       H  0.13311763  0.82870627  0.06382179     0.05700
H1332       H  0.12720029  0.85233346  0.08750980     0.08900
H1333       H  0.10744506  0.84210214  0.05461329     0.08900
H1334       H  0.02348503  0.72006968  0.14001500     0.08900
H1335       H  0.00659556  0.70707067  0.10633207     0.08900
H1336       H  0.49590853  0.73100450  0.13381661     0.05700
C1337       C  0.11246553  0.56863391  0.15639844    -0.20100
C1338       C  0.12394668  0.58833837  0.13446291    -0.06700
C1339       C  0.13173721  0.57849697  0.11035409     0.14200
C1340       C  0.12566472  0.54829278  0.10800116    -0.20200
C1341       C  0.11205627  0.52793902  0.12925489    -0.06700
C1342       C  0.10644380  0.53847504  0.15408474     0.14100
C1343       C  0.12167883  0.02630648  0.17702210    -0.23500
H1344       H  0.10578576  0.57608531  0.17455305     0.15400
H1345       H  0.13028973  0.54016556  0.08913257     0.15500
C1346       C  0.14466952  0.59939335  0.08652003    -0.23500
H1347       H  0.08846531  0.52903342  0.19509112     0.05700
H1348       H  0.14013499  0.02030012  0.17712410     0.08900
H1349       H  0.09904397  0.00527020  0.17829082     0.08900
H1350       H  0.16630357  0.62009987  0.09283557     0.08900
H1351       H  0.12807076  0.60622222  0.07909006     0.08900
H1352       H  0.14972882  0.58823023  0.06934756     0.05700
C1353       C  0.09736317  0.59264128  0.99040412    -0.20100
C1354       C  0.12788708  0.60838960  0.98163425    -0.06700
C1355       C  0.14825621  0.63694687  0.99428660     0.14200
C1356       C  0.13763028  0.64853641  0.01508760    -0.20200
C1357       C  0.10730724  0.63254804  0.02405630    -0.06700
C1358       C  0.08688410  0.60411571  0.01142190     0.14100
C1359       C  0.05372877  0.58602235  0.01935521    -0.23500
H1360       H  0.08139554  0.57113221  0.98060799     0.15400
H1361       H  0.15347570  0.67003136  0.02498206     0.15500
C1362       C  0.18110595  0.65597918  0.98575523    -0.23500
H1363       H  0.04058492  0.56576371  0.00583806     0.05700
H1364       H  0.04287864  0.60048828  0.01792279     0.08900
H1365       H  0.05187847  0.57761115  0.04035394     0.08900
H1366       H  0.18197831  0.66165303  0.96393242     0.08900
H1367       H  0.19364216  0.64338539  0.98936398     0.08900
H1368       H  0.19328203  0.67780467  0.99746201     0.05700
C1369       C  0.38815036  0.58855729  0.73281787    -0.20100
C1370       C  0.41502958  0.59138969  0.72139252    -0.06700
C1371       C  0.43720529  0.59057239  0.73887787     0.14200
C1372       C  0.43136494  0.58588691  0.76669748    -0.20200
C1373       C  0.40411844  0.58197947  0.77793103    -0.06700
C1374       C  0.38239569  0.58386044  0.76081402     0.14100
C1375       C  0.35265235  0.57971614  0.77162376    -0.23500
H1376       H  0.37102338  0.58907898  0.71964481     0.15400
H1377       H  0.44839098  0.58519879  0.77991359     0.15500
C1378       C  0.46737164  0.59495618  0.72878517    -0.23500
H1379       H  0.33770685  0.58030840  0.75515872     0.05700
H1380       H  0.35723726  0.59830417  0.78638025     0.08900
H1381       H  0.33998081  0.55736152  0.78172412     0.08900
H1382       H  0.47944807  0.61653427  0.71742552     0.08900
H1383       H  0.46353335  0.57540801  0.71558297     0.08900
H1384       H  0.48273739  0.59629134  0.74575419     0.05700
C1385       C  0.48558854  0.64009373  0.51109080    -0.20100
C1386       C  0.47030575  0.60971047  0.51977084    -0.06700
C1387       C  0.47689044  0.58858830  0.50672871     0.14200
C1388       C  0.00195454  0.59817356  0.48671355    -0.20200
C1389       C  0.01650039  0.62802857  0.47648206    -0.06700
C1390       C  0.00677158  0.64838787  0.48605710     0.14100
C1391       C  0.01917397  0.67991724  0.47473341    -0.23500
H1392       H  0.48063032  0.65642979  0.52093072     0.15400
H1393       H  0.00851023  0.58210056  0.47898447     0.15500
C1394       C  0.46170239  0.55581540  0.51520130    -0.23500
H1395       H  0.00774456  0.69195603  0.48353076     0.05700
H1396       H  0.01533930  0.67841278  0.45237945     0.08900
H1397       H  0.04400763  0.69393801  0.47955453     0.08900
H1398       H  0.43654693  0.54498471  0.51200115     0.08900
H1399       H  0.46686499  0.55456736  0.53697607     0.08900
H1400       H  0.46985449  0.54255946  0.50320603     0.05700
C1401       C  0.06081718  0.66614504  0.26444161    -0.20100
C1402       C  0.08678101  0.67963505  0.28159217    -0.06700
C1403       C  0.11616144  0.69575785  0.26959183     0.14200
C1404       C  0.11862152  0.69679815  0.24105695    -0.20200
C1405       C  0.09265354  0.68254749  0.22394315    -0.06700
C1406       C  0.06325498  0.66717760  0.23596213     0.14100
C1407       C  0.03417483  0.65039648  0.21908997    -0.23500
H1408       H  0.03836487  0.65376051  0.27339466     0.15400
H1409       H  0.14105447  0.70882092  0.23201503     0.15500
C1410       C  0.14515202  0.71257654  0.28653336    -0.23500
H1411       H  0.01367888  0.63793684  0.23191269     0.05700
H1412       H  0.03546945  0.63341470  0.20548567     0.08900
H1413       H  0.03062149  0.66673541  0.20686048     0.08900
H1414       H  0.14938855  0.69623591  0.29803808     0.08900
H1415       H  0.14326940  0.72871622  0.30080047     0.08900
H1416       H  0.16550303  0.72596750  0.27376755     0.05700
C1417       C  0.18900212  0.58173461  0.77118156    -0.20100
C1418       C  0.17273602  0.59545577  0.78186603    -0.06700
C1419       C  0.15820825  0.60598315  0.76361715     0.14200
C1420       C  0.15894280  0.60096102  0.73554289    -0.20200
C1421       C  0.17422955  0.58623657  0.72512496    -0.06700
C1422       C  0.19005741  0.57715757  0.74309646     0.14100
C1423       C  0.20673130  0.56126106  0.73284967    -0.23500
H1424       H  0.20043220  0.57386194  0.78496491     0.15400
H1425       H  0.14704870  0.60814267  0.72156464     0.15500
C1426       C  0.14075254  0.62125858  0.77343274    -0.23500
H1427       H  0.21694698  0.55469662  0.74975765     0.05700
H1428       H  0.22555189  0.57660749  0.71937376     0.08900
H1429       H  0.19057108  0.54022046  0.72134598     0.08900
H1430       H  0.15652629  0.64279540  0.78446942     0.08900
H1431       H  0.12214774  0.60583851  0.78707152     0.08900
H1432       H  0.13012109  0.62708063  0.75632822     0.05700
C1433       C  0.27499279  0.57192586  0.59296865    -0.20100
C1434       C  0.25502598  0.54943539  0.61076254    -0.06700
C1435       C  0.26298339  0.52839769  0.62132409     0.14200
C1436       C  0.29180668  0.53180276  0.61536428    -0.20200
C1437       C  0.31252469  0.55550414  0.59890829    -0.06700
C1438       C  0.30365721  0.57519804  0.58690905     0.14100
C1439       C  0.32527195  0.60090520  0.56918066    -0.23500
H1440       H  0.26854582  0.58774154  0.58454273     0.15400
H1441       H  0.29909918  0.51725678  0.62512102     0.15500
C1442       C  0.24214372  0.50384060  0.64033687    -0.23500
H1443       H  0.31483395  0.61437545  0.56159938     0.05700
H1444       H  0.33143612  0.59150580  0.55137477     0.08900
H1445       H  0.34642099  0.61656419  0.58086072     0.08900
H1446       H  0.22012922  0.48825422  0.62978362     0.08900
H1447       H  0.23766178  0.51429291  0.65840803     0.08900
H1448       H  0.25240643  0.49004594  0.64746893     0.05700
C1449       C  0.07407143  0.60977479  0.59613021    -0.20100
C1450       C  0.08434059  0.60235169  0.62001983    -0.06700
C1451       C  0.07290279  0.60578711  0.64543360     0.14200
C1452       C  0.04963710  0.61336460  0.64583202    -0.20200
C1453       C  0.03776468  0.61825775  0.62187403    -0.06700
C1454       C  0.05085162  0.61762946  0.59674681     0.14100
C1455       C  0.53368693  0.61897727  0.57133841    -0.23500
H1456       H  0.08308682  0.60792878  0.57671543     0.15400
H1457       H  0.03949024  0.61403766  0.66500736     0.15500
C1458       C  0.08448982  0.60130735  0.67246515    -0.23500
H1459       H  0.05135587  0.62127199  0.55263234     0.05700
H1460       H  0.53501875  0.64151472  0.56994981     0.08900
H1461       H  0.50929218  0.60074659  0.57052824     0.08900
H1462       H  0.10980974  0.61568827  0.67382385     0.08900
H1463       H  0.07753969  0.57695780  0.67510992     0.08900
H1464       H  0.07489480  0.60792687  0.68979527     0.05700
C1465       C  0.14851206  0.49410139  0.52043019    -0.20100
C1466       C  0.13467975  0.51176420  0.52638558    -0.06700
C1467       C  0.10917153  0.50714671  0.51052176     0.14200
C1468       C  0.11180759  0.00027806  0.47834683    -0.20200
C1469       C  0.11265853  0.97272143  0.47761251    -0.06700
C1470       C  0.12425078  0.96517307  0.50076624     0.14100
C1471       C  0.12489970  0.93569303  0.50250996    -0.23500
H1472       H  0.16774461  0.49715839  0.53292317     0.15400
H1473       H  0.10290031  0.00639105  0.46086209     0.15500
C1474       C  0.09248344  0.52432001  0.51658985    -0.23500
H1475       H  0.13267964  0.93272741  0.52286929     0.05700
H1476       H  0.14104703  0.93534477  0.48749654     0.08900
H1477       H  0.10154563  0.91608697  0.49872388     0.08900
H1478       H  0.10820590  0.54912472  0.51422095     0.08900
H1479       H  0.08387920  0.51982633  0.53768225     0.08900
H1480       H  0.07256184  0.51739536  0.50261252     0.05700
C1481       C  0.11823261  0.54514799  0.35319864    -0.20100
C1482       C  0.11838656  0.53120205  0.37755719    -0.06700
C1483       C  0.11801086  0.54485704  0.40266223     0.14200
C1484       C  0.11432091  0.57047458  0.40278154    -0.20200
C1485       C  0.11106234  0.58272158  0.37846000    -0.06700
C1486       C  0.11449621  0.57092099  0.35332054     0.14100
C1487       C  0.11187787  0.58383967  0.32662334    -0.23500
H1488       H  0.11855119  0.53448248  0.33409240     0.15400
H1489       H  0.11240065  0.58007753  0.42195812     0.15500
C1490       C  0.12032168  0.53178108  0.42942365    -0.23500
H1491       H  0.11398462  0.57105012  0.30906648     0.05700
H1492       H  0.13042460  0.60791296  0.32524970     0.08900
H1493       H  0.08927526  0.58266011  0.32492456     0.08900
H1494       H  0.14147542  0.53003713  0.43009897     0.08900
H1495       H  0.10010607  0.50890381  0.43200663     0.08900
H1496       H  0.12117347  0.54623694  0.44694256     0.05700
C1497       C  0.03917133  0.75819081  0.38775712    -0.20100
C1498       C  0.06312627  0.75495871  0.39904813    -0.06700
C1499       C  0.08789994  0.78058976  0.41241678     0.14200
C1500       C  0.08860839  0.80864074  0.41279424    -0.20200
C1501       C  0.06579184  0.81230437  0.39985366    -0.06700
C1502       C  0.04011601  0.78646183  0.38798107     0.14100
C1503       C  0.01344001  0.78827129  0.37578607    -0.23500
H1504       H  0.01982468  0.73859214  0.37818828     0.15400
H1505       H  0.10821240  0.82839801  0.42192640     0.15500
C1506       C  0.11486561  0.77956112  0.42494575    -0.23500
H1507       H  0.99429840  0.76537410  0.36983361     0.05700
H1508       H  0.02046791  0.80217155  0.35719688     0.08900
H1509       H  0.00462088  0.79841182  0.39085526     0.08900
H1510       H  0.12567936  0.77221804  0.40928417     0.08900
H1511       H  0.10731608  0.76371447  0.44227124     0.08900
H1512       H  0.13269424  0.80220000  0.43295488     0.05700
C1513       C  0.10856678  0.93579875  0.26061524    -0.20100
C1514       C  0.08967636  0.90983900  0.27566634    -0.06700
C1515       C  0.06817754  0.88292139  0.26119943     0.14200
C1516       C  0.06671776  0.88288301  0.23254966    -0.20200
C1517       C  0.08574977  0.90889001  0.21756940    -0.06700
C1518       C  0.10682508  0.93591854  0.23211748     0.14100
C1519       C  0.12704370  0.96565498  0.21822275    -0.23500
H1520       H  0.12465295  0.95662650  0.27128461     0.15400
H1521       H  0.05043945  0.86224371  0.22174283     0.15500
C1522       C  0.04656988  0.85390691  0.27541313    -0.23500
H1523       H  0.14027744  0.98464569  0.23297126     0.05700
H1524       H  0.11268014  0.97204221  0.20575665     0.08900
H1525       H  0.14392803  0.96358225  0.20533600     0.08900
H1526       H  0.03060559  0.85764490  0.28817753     0.08900
H1527       H  0.05977403  0.84628198  0.28813457     0.08900
H1528       H  0.03235532  0.83510922  0.26079196     0.05700
C1529       C  0.42955688  0.83891633  0.73941790    -0.20100
C1530       C  0.40171471  0.81706102  0.72717703    -0.06700
C1531       C  0.38014182  0.79270476  0.74294119     0.14200
C1532       C  0.38654281  0.79156533  0.77061284    -0.20200
C1533       C  0.41412489  0.81370788  0.78290476    -0.06700
C1534       C  0.43610224  0.83747019  0.76699824     0.14100
C1535       C  0.46576624  0.86222880  0.77927897    -0.23500
H1536       H  0.44629093  0.85737370  0.72733175     0.15400
H1537       H  0.36955861  0.77363130  0.78297337     0.15500
C1538       C  0.34977026  0.76860167  0.73119808    -0.23500
H1539       H  0.47987341  0.87952519  0.76410334     0.05700
H1540       H  0.47943738  0.85219505  0.78733948     0.08900
H1541       H  0.46091955  0.87405852  0.79600565     0.08900
H1542       H  0.35342880  0.75506138  0.71530052     0.08900
H1543       H  0.33722911  0.77946575  0.72232520     0.08900
H1544       H  0.33507575  0.75248380  0.74690069     0.05700
C1545       C  0.23444496  0.69260199  0.62991663    -0.20100
C1546       C  0.23317569  0.67583629  0.60644784    -0.06700
C1547       C  0.25465685  0.69045998  0.58578338     0.14200
C1548       C  0.27767095  0.72108673  0.58968504    -0.20200
C1549       C  0.28014015  0.73697984  0.61404347    -0.06700
C1550       C  0.25793315  0.72280054  0.63414710     0.14100
C1551       C  0.25974265  0.73909511  0.66048946    -0.23500
H1552       H  0.21799738  0.68132747  0.64582731     0.15400
H1553       H  0.29521299  0.73194797  0.57454548     0.15500
C1554       C  0.25493093  0.67322085  0.56076304    -0.23500
H1555       H  0.24039043  0.72475553  0.67395884     0.05700
H1556       H  0.25900923  0.76025905  0.65624978     0.08900
H1557       H  0.28141363  0.74507183  0.67152157     0.08900
H1558       H  0.23298458  0.66454172  0.54930408     0.08900
H1559       H  0.25801386  0.65374600  0.56667317     0.08900
H1560       H  0.27387122  0.68790088  0.54706024     0.05700
C1561       C  0.02551426  0.91637280  0.60977698    -0.20100
C1562       C  0.00578958  0.91202318  0.63148508    -0.06700
C1563       C  0.01839966  0.92966747  0.65579738     0.14200
C1564       C  0.04940486  0.95216811  0.65674712    -0.20200
C1565       C  0.06835331  0.95770996  0.63440664    -0.06700
C1566       C  0.05650285  0.93908364  0.61082283     0.14100
C1567       C  0.07128951  0.46491643  0.58088600    -0.23500
H1568       H  0.01640925  0.90281536  0.59129077     0.15400
H1569       H  0.05871889  0.96664417  0.67474073     0.15500
C1570       C  0.99975966  0.92583038  0.68084149    -0.23500
H1571       H  0.05629764  0.45583487  0.56249511     0.05700
H1572       H  0.09190907  0.46272202  0.57751556     0.08900
H1573       H  0.07829406  0.48941220  0.58323458     0.08900
H1574       H  0.98907529  0.90193764  0.68781326     0.08900
H1575       H  0.48657786  0.91613305  0.68154242     0.08900
H1576       H  0.01407034  0.94075338  0.69796951     0.05700
C1577       C  0.39734269  0.69161994  0.60375243    -0.20100
C1578       C  0.42729665  0.69689791  0.60797044    -0.06700
C1579       C  0.45198960  0.72728248  0.60735058     0.14200
C1580       C  0.44579991  0.75147917  0.60419721    -0.20200
C1581       C  0.41563052  0.74598084  0.60150996    -0.06700
C1582       C  0.39122175  0.71555907  0.60036129     0.14100
C1583       C  0.35826089  0.70748836  0.59596741    -0.23500
H1584       H  0.37827585  0.66847171  0.60337152     0.15400
H1585       H  0.46441444  0.77482718  0.60547885     0.15500
C1586       C  0.94735139  0.71556846  0.66311752    -0.23500
H1587       H  0.34856013  0.69203905  0.57795243     0.05700
H1588       H  0.35557845  0.72764375  0.59222137     0.08900
H1589       H  0.34472259  0.69559772  0.61404361     0.08900
H1590       H  0.96959130  0.71591413  0.66408318     0.08900
H1591       H  0.92858427  0.69241781  0.66793875     0.08900
H1592       H  0.94774563  0.73149262  0.67904876     0.05700
C1593       C  0.38960970  0.97213154  0.64959499    -0.20100
C1594       C  0.38758826  0.98133291  0.62305008    -0.16300
C1595       C  0.37397615  0.95861257  0.60228971     0.14200
C1596       C  0.36523715  0.92819436  0.60827057    -0.20200
C1597       C  0.37008961  0.91987051  0.63422570    -0.06700
C1598       C  0.38104023  0.94188346  0.65541657     0.14100
C1599       C  0.38426010  0.93427142  0.68435242    -0.23500
H1600       H  0.39867846  0.98882169  0.66609088     0.15400
H1601       H  0.35683530  0.91124182  0.59197943     0.15500
C1602       C  0.37002143  0.96615023  0.57352173    -0.23500
H1603       H  0.37118925  0.94127847  0.69785762     0.05700
H1604       H  0.40876949  0.94677022  0.69073063     0.08900
H1605       H  0.37519024  0.90954152  0.68721599     0.08900
H1606       H  0.39261303  0.98267310  0.56514925     0.08900
H1607       H  0.35446554  0.97584205  0.57302894     0.08900
H1608       H  0.35984109  0.94562983  0.56002640     0.05700
C1609       C  0.34728199  0.93565275  0.26955721    -0.20100
C1610       C  0.32410590  0.90806464  0.27985945    -0.06700
C1611       C  0.30095979  0.88681161  0.26206796     0.14200
C1612       C  0.30244058  0.89329909  0.23424619    -0.20200
C1613       C  0.32641673  0.92042390  0.22387509    -0.06700
C1614       C  0.34878648  0.94219847  0.24194543     0.14100
C1615       C  0.37402946  0.97269278  0.23260163    -0.23500
H1616       H  0.36455734  0.95239261  0.28331114     0.15400
H1617       H  0.28530571  0.87661799  0.22037597     0.15500
C1618       C  0.27542311  0.85692974  0.27196297    -0.23500
H1619       H  0.38747975  0.98776952  0.24997971     0.05700
H1620       H  0.36406272  0.98454162  0.22103983     0.08900
H1621       H  0.39033156  0.96964283  0.21973411     0.08900
H1622       H  0.26101398  0.86111686  0.28637022     0.08900
H1623       H  0.28512016  0.84404214  0.28219863     0.08900
H1624       H  0.26030116  0.84250111  0.25498404     0.05700
C1625       C  0.38535005  0.87492716  0.47958508    -0.20100
C1626       C  0.36615333  0.88792402  0.47994561    -0.06700
C1627       C  0.35480546  0.89134319  0.50499772     0.14200
C1628       C  0.36157476  0.88027350  0.52864511    -0.20200
C1629       C  0.37937602  0.86565938  0.52812373    -0.06700
C1630       C  0.39216649  0.86384957  0.50322146     0.14100
C1631       C  0.41182326  0.84914799  0.50101310    -0.23500
H1632       H  0.39433172  0.87249959  0.46035488     0.15400
H1633       H  0.35218652  0.88248867  0.54769899     0.15500
C1634       C  0.33424854  0.90508003  0.50674180    -0.23500
H1635       H  0.41880702  0.84867093  0.47976306     0.05700
H1636       H  0.39893111  0.82525872  0.50800553     0.08900
H1637       H  0.43300606  0.86216620  0.51354102     0.08900
H1638       H  0.31365730  0.89195229  0.49351893     0.08900
H1639       H  0.34683729  0.92914391  0.50018086     0.08900
H1640       H  0.32632300  0.90476926  0.52777085     0.05700
C1641       C  0.45362676  0.56412040  0.40218633    -0.20100
C1642       C  0.46170771  0.57673538  0.37624060    -0.06700
C1643       C  0.44372682  0.56022550  0.35354968     0.14200
C1644       C  0.41957842  0.53031461  0.35703105    -0.20200
C1645       C  0.41320080  0.51653330  0.38271260    -0.06700
C1646       C  0.42962801  0.53424364  0.40579663     0.14100
C1647       C  0.42374903  0.52125941  0.43396060    -0.23500
H1648       H  0.46780559  0.57697374  0.41955850     0.15400
H1649       H  0.40653731  0.51708183  0.33934837     0.15500
C1650       C  0.45116324  0.57355667  0.32560579    -0.23500
H1651       H  0.43968653  0.53805231  0.44932396     0.05700
H1652       H  0.42688936  0.50101250  0.43443729     0.08900
H1653       H  0.40008003  0.51469030  0.43999076     0.08900
H1654       H  0.98202564  0.57392659  0.32007168     0.08900
H1655       H  0.44997967  0.59491860  0.32533077     0.08900
H1656       H  0.43481843  0.55761849  0.30998826     0.05700
C1657       C  0.23799709  0.76631152  0.39048812    -0.20100
C1658       C  0.24024383  0.79470537  0.39569317    -0.06700
C1659       C  0.21543652  0.79578163  0.40798306     0.14200
C1660       C  0.18839728  0.76850561  0.41315266    -0.20200
C1661       C  0.18491650  0.74024497  0.40523585    -0.06700
C1662       C  0.21041515  0.73901607  0.39465887     0.14100
C1663       C  0.20868703  0.70904134  0.38780696    -0.23500
H1664       H  0.25737622  0.76553184  0.38193281     0.15400
H1665       H  0.16912587  0.76940351  0.42166916     0.15500
C1666       C  0.21721574  0.82561194  0.41566982    -0.23500
H1667       H  0.23125507  0.71227125  0.38152532     0.05700
H1668       H  0.19225128  0.69728473  0.37077084     0.08900
H1669       H  0.20134474  0.69428327  0.40590187     0.08900
H1670       H  0.21940171  0.83891273  0.39721246     0.08900
H1671       H  0.23723199  0.83901378  0.42943993     0.08900
H1672       H  0.19635512  0.82207258  0.42633154     0.05700
C1673       C  0.43280058  0.87447936  0.39499057    -0.20100
C1674       C  0.42120805  0.87619583  0.36945465    -0.06700
C1675       C  0.43931169  0.88183761  0.34619832     0.14200
C1676       C  0.46945141  0.88758050  0.34932109    -0.20200
C1677       C  0.48200732  0.88903200  0.37522794    -0.06700
C1678       C  0.46327616  0.88138997  0.39825917     0.14100
C1679       C  0.47543300  0.88093166  0.42625620    -0.23500
H1680       H  0.41874595  0.87021867  0.41278439     0.15400
H1681       H  0.48387584  0.89287647  0.33166457     0.15500
C1682       C  0.42707652  0.88239259  0.31827092    -0.23500
H1683       H  0.45725584  0.87332123  0.44171723     0.05700
H1684       H  0.49384636  0.90410049  0.43235817     0.08900
H1685       H  0.48464388  0.86499829  0.42637124     0.08900
H1686       H  0.42173018  0.90116549  0.31697484     0.08900
H1687       H  0.40596286  0.86033632  0.31390541     0.08900
H1688       H  0.44394229  0.88597267  0.30229144     0.05700
C1689       C  0.25324644  0.95064909  0.37392431    -0.20100
C1690       C  0.25827299  0.93768393  0.39713323    -0.06700
C1691       C  0.23752457  0.92910953  0.41863280     0.14200
C1692       C  0.21108323  0.93162824  0.41557038    -0.20200
C1693       C  0.20443526  0.94206884  0.39130656    -0.06700
C1694       C  0.22678810  0.95316847  0.37069560     0.14100
C1695       C  0.21363223  0.45080767  0.34023329    -0.23500
H1696       H  0.26946526  0.95735972  0.35750820     0.15400
H1697       H  0.19478997  0.92395201  0.43193275     0.15500
C1698       C  0.24207926  0.91531960  0.44400905    -0.23500
H1699       H  0.22939030  0.45147850  0.32424355     0.05700
H1700       H  0.21319486  0.47252828  0.33942246     0.08900
H1701       H  0.19050618  0.43135615  0.33530837     0.08900
H1702       H  0.26394992  0.93187100  0.45425922     0.08900
H1703       H  0.24271942  0.89423226  0.43872406     0.08900
H1704       H  0.22328960  0.90925623  0.45861460     0.05700
Zn1705     Zn  0.79739731  0.38832399  0.36307025     1.49700
Zn1706     Zn  0.84002978  0.43083407  0.41206176     1.49400
Zn1707     Zn  0.83684936  0.36715687  0.39468003     1.49100
Zn1708     Zn  0.86839873  0.42284711  0.35665335     1.49500
O1709       O  0.83585938  0.40280947  0.38198873    -1.84000
O1710       O  0.78000346  0.41421607  0.37372444    -0.74600
O1711       O  0.85147368  0.41679086  0.44763441    -0.74400
O1712       O  0.79491228  0.32971907  0.39605384    -0.73900
O1713       O  0.80090107  0.43426235  0.41415002    -0.74600
O1714       O  0.76673082  0.34650259  0.37560868    -0.74200
O1715       O  0.85134986  0.37510742  0.43258855    -0.74800
O1716       O  0.89722384  0.40624325  0.35875137    -0.74200
O1717       O  0.87386361  0.47413023  0.40346642    -0.74900
O1718       O  0.86889912  0.36056815  0.37680395    -0.74300
O1719       O  0.89151095  0.46745806  0.36438990    -0.74800
O1720       O  0.85206532  0.41850046  0.31900498    -0.74700
O1721       O  0.80149744  0.39109391  0.32225870    -0.74500
C1722       C  0.78124848  0.42903128  0.39516230     0.77300
C1723       C  0.85599620  0.39426329  0.45145388     0.77800
C1724       C  0.76893928  0.32626021  0.38900755     0.76700
C1725       C  0.89377670  0.38078390  0.36648263     0.77100
C1726       C  0.89163167  0.48488758  0.38325966     0.78300
C1727       C  0.82543996  0.40575372  0.30816883     0.77300
Zn1728     Zn  0.91225317  0.36437209  0.64878623     1.49700
Zn1729     Zn  0.87885175  0.29371674  0.63814555     1.49400
Zn1730     Zn  0.85624644  0.33356583  0.60726617     1.49100
Zn1731     Zn  0.92142825  0.33851649  0.59168858     1.49500
O1732       O  0.89241507  0.33254993  0.62113364    -1.84000
O1733       O  0.90856672  0.34742962  0.68629398    -0.74600
O1734       O  0.83416269  0.26536629  0.63103804    -0.74400
O1735       O  0.85262673  0.36886781  0.62327870    -0.73900
O1736       O  0.88809823  0.29775335  0.67833102    -0.74600
O1737       O  0.89681810  0.39430960  0.64622573    -0.74200
O1738       O  0.81708027  0.29182082  0.60812294    -0.74800
O1739       O  0.90852424  0.35254043  0.55716625    -0.74200
O1740       O  0.89974571  0.27306801  0.62174878    -0.74900
O1741       O  0.86328958  0.34637691  0.56900812    -0.74300
O1742       O  0.92513513  0.29990560  0.58587649    -0.74800
O1743       O  0.96439170  0.37153884  0.60291004    -0.74700
O1744       O  0.95726744  0.38765231  0.64280410    -0.74500
C1745       C  0.89993557  0.32060373  0.69458033     0.77300
C1746       C  0.81281771  0.26697664  0.61845661     0.77800
C1747       C  0.87299634  0.39296265  0.63548666     0.76700
C1748       C  0.88460618  0.35455950  0.55193052     0.77100
C1749       C  0.91613932  0.27675908  0.60111942     0.78300
C1750       C  0.97491759  0.38832819  0.62422374     0.77300
Zn1751     Zn  0.56746892  0.38983173  0.36334809     1.49700
Zn1752     Zn  0.61038357  0.41105919  0.41632421     1.49400
Zn1753     Zn  0.62757339  0.45415506  0.36348934     1.49100
Zn1754     Zn  0.57165542  0.44145697  0.40206391     1.49500
O1755       O  0.59479580  0.42430054  0.38609537    -1.84000
O1756       O  0.56630137  0.35249030  0.37649626    -0.74600
O1757       O  0.65435363  0.42428414  0.40929640    -0.74400
O1758       O  0.61850603  0.44205373  0.32284671    -0.73900
O1759       O  0.58812988  0.36413977  0.41754601    -0.74600
O1760       O  0.57881757  0.39532211  0.32425524    -0.74200
O1761       O  0.66752925  0.45580455  0.37450986    -0.74800
O1762       O  0.58518069  0.48185120  0.38650995    -0.74200
O1763       O  0.61183599  0.43395076  0.45160146    -0.74900
O1764       O  0.63837447  0.99889216  0.36637400    -0.74300
O1765       O  0.58221965  0.45331644  0.44143296    -0.74800
O1766       O  0.52645759  0.41541854  0.39515864    -0.74700
O1767       O  0.52470418  0.38247957  0.36389154    -0.74500
C1768       C  0.57352894  0.34457577  0.39848112     0.77300
C1769       C  0.67425513  0.44205335  0.39261195     0.77800
C1770       C  0.59859662  0.41749490  0.31074720     0.76700
C1771       C  0.61942058  0.00691187  0.37459990     0.77100
C1772       C  0.60062971  0.45099708  0.45779001     0.78300
C1773       C  0.51171144  0.39380583  0.37802073     0.77300
Zn1774     Zn  0.69883707  0.08572190  0.64135852     1.49700
Zn1775     Zn  0.65945275  0.02447648  0.60836283     1.49400
Zn1776     Zn  0.62797550  0.05032578  0.64601586     1.49100
Zn1777     Zn  0.65755115  0.08574740  0.59072555     1.49500
O1778       O  0.66100773  0.06187529  0.62109318    -1.84000
O1779       O  0.72916325  0.07244737  0.63056888    -0.74600
O1780       O  0.62429117  0.48987431  0.62676924    -0.74400
O1781       O  0.64227611  0.05947848  0.68487460    -0.73900
O1782       O  0.70063382  0.02629315  0.61171496    -0.74600
O1783       O  0.69286536  0.08415769  0.68235956    -0.74200
O1784       O  0.59662408  0.00633324  0.64101832    -0.74800
O1785       O  0.62280110  0.09492417  0.59838812    -0.74200
O1786       O  0.65175752  0.02099452  0.56920427    -0.74900
O1787       O  0.60722099  0.07399485  0.63859706    -0.74300
O1788       O  0.64869520  0.06073614  0.55420484    -0.74800
O1789       O  0.69584263  0.12900995  0.59081347    -0.74700
O1790       O  0.71662593  0.12923952  0.63100822    -0.74500
C1791       C  0.72658143  0.04852080  0.61912489     0.77300
C1792       C  0.59929171  0.48722650  0.63553651     0.77800
C1793       C  0.66858977  0.07355012  0.69634502     0.76700
C1794       C  0.60641621  0.09014277  0.61942510     0.77100
C1795       C  0.64718313  0.03488831  0.55007644     0.78300
C1796       C  0.71494642  0.14324831  0.61029224     0.77300
Zn1797     Zn  0.58794764  0.18625167  0.41993770     1.49700
Zn1798     Zn  0.54653664  0.16670274  0.36430389     1.49400
Zn1799     Zn  0.61044046  0.16872773  0.36724022     1.49100
Zn1800     Zn  0.55516325  0.11972346  0.40017776     1.49500
O1801       O  0.57496871  0.16084839  0.38745941    -1.84000
O1802       O  0.57752631  0.21843881  0.41388558    -0.74600
O1803       O  0.56004637  0.17092793  0.32388915    -0.74400
O1804       O  0.64694864  0.20528251  0.38198975    -0.73900
O1805       O  0.54787584  0.20645715  0.37706995    -0.74600
O1806       O  0.63490615  0.21077272  0.42432746    -0.74200
O1807       O  0.60551985  0.17412768  0.32786778    -0.74800
O1808       O  0.58357509  0.10232008  0.39799188    -0.74200
O1809       O  0.00490330  0.12746448  0.36777094    -0.74900
O1810       O  0.61895746  0.13461584  0.36985852    -0.74300
O1811       O  0.01888612  0.09312557  0.37767018    -0.74800
O1812       O  0.53570889  0.11601716  0.43701785    -0.74700
O1813       O  0.56166723  0.16351938  0.45250301    -0.74500
C1814       C  0.56222524  0.22459999  0.39709998     0.77300
C1815       C  0.58442246  0.17369140  0.31317024     0.77800
C1816       C  0.65431954  0.21834847  0.40520035     0.76700
C1817       C  0.60697127  0.11017332  0.38321763     0.77100
C1818       C  0.99848010  0.09984216  0.37119246     0.78300
C1819       C  0.53991639  0.13610162  0.45498019     0.77300
Zn1820     Zn  0.90508635  0.06992025  0.58507490     1.49700
Zn1821     Zn  0.90631935  0.11322869  0.63412756     1.49400
Zn1822     Zn  0.94453708  0.08076070  0.63959227     1.49100
Zn1823     Zn  0.96527423  0.13560399  0.59971418     1.49500
O1824       O  0.93007398  0.09961347  0.61417483    -1.84000
O1825       O  0.86187890  0.06612837  0.58350298    -0.74600
O1826       O  0.90959831  0.11087820  0.67506471    -0.74400
O1827       O  0.92058063  0.03536918  0.63530704    -0.73900
O1828       O  0.86293878  0.08615334  0.62435152    -0.74600
O1829       O  0.89485057  0.02703142  0.59650043    -0.74200
O1830       O  0.93828980  0.08902321  0.67825297    -0.74800
O1831       O  0.50437033  0.13739388  0.61567201    -0.74200
O1832       O  0.91629943  0.15503364  0.62216201    -0.74900
O1833       O  0.98875875  0.09522188  0.63267661    -0.74300
O1834       O  0.96071541  0.17378989  0.60096447    -0.74800
O1835       O  0.96831469  0.12723414  0.56111595    -0.74700
O1836       O  0.93038417  0.08128872  0.54893905    -0.74500
C1837       C  0.84826404  0.07066088  0.60344059     0.77300
C1838       C  0.92301238  0.09995452  0.68936143     0.77800
C1839       C  0.90178410  0.01700384  0.61752204     0.76700
C1840       C  0.50850478  0.11645027  0.62554132     0.77100
C1841       C  0.93812449  0.17639520  0.60928084     0.78300
C1842       C  0.95550296  0.10570410  0.54368883     0.77300
Zn1843     Zn  0.63139317  0.17667698  0.14479068     1.49700
Zn1844     Zn  0.57641206  0.13063539  0.10498720     1.49400
Zn1845     Zn  0.56871259  0.17779586  0.14071598     1.49100
Zn1846     Zn  0.61356855  0.19872421  0.08915894     1.49500
O1847       O  0.59799871  0.17142255  0.12011645    -1.84000
O1848       O  0.63639061  0.13912885  0.14199252    -0.74600
O1849       O  0.53092072  0.11012050  0.10974123    -0.74400
O1850       O  0.57854116  0.18329043  0.18075759    -0.73900
O1851       O  0.59142593  0.10584745  0.12287032    -0.74600
O1852       O  0.62088589  0.18026832  0.18450780    -0.74200
O1853       O  0.52605203  0.14213005  0.13777744    -0.74800
O1854       O  0.59235275  0.22457859  0.08729828    -0.74200
O1855       O  0.58707952  0.12850046  0.06623488    -0.74900
O1856       O  0.56777408  0.21405705  0.12667858    -0.74300
O1857       O  0.61449229  0.17646623  0.05373679    -0.74800
O1858       O  0.65753343  0.22891684  0.09671551    -0.74700
O1859       O  0.67136329  0.21479507  0.13436836    -0.74500
C1860       C  0.61686102  0.11223417  0.13393864     0.77300
C1861       C  0.51457649  0.11713022  0.12443877     0.77800
C1862       C  0.59918261  0.18271027  0.19540589     0.76700
C1863       C  0.57688596  0.22957635  0.10516214     0.77100
C1864       C  0.60337920  0.14797830  0.04876436     0.78300
C1865       C  0.67772092  0.23311909  0.11462977     0.77300
Zn1866     Zn  0.61969238  0.06547869  0.90406255     1.49700
Zn1867     Zn  0.68766259  0.10078959  0.91800780     1.49400
Zn1868     Zn  0.66373176  0.05712063  0.86581169     1.49100
Zn1869     Zn  0.66315497  0.11988478  0.86538486     1.49500
O1870       O  0.65899984  0.08630417  0.88766030    -1.84000
O1871       O  0.62020365  0.08084755  0.94199477    -0.74600
O1872       O  0.70939646  0.07598283  0.92119770    -0.74400
O1873       O  0.62731518  0.01513775  0.86783628    -0.73900
O1874       O  0.66942169  0.10858943  0.95228786    -0.74600
O1875       O  0.60021235  0.01993426  0.90096388    -0.74200
O1876       O  0.69959779  0.05500296  0.87960450    -0.74800
O1877       O  0.66487157  0.10972146  0.82511451    -0.74200
O1878       O  0.72070475  0.14173239  0.90915633    -0.74900
O1879       O  0.66986075  0.06838986  0.82660256    -0.74300
O1880       O  0.70383966  0.15881297  0.87571132    -0.74800
O1881       O  0.62490708  0.12415545  0.87094391    -0.74700
O1882       O  0.59260704  0.07735246  0.88551718    -0.74500
C1883       C  0.64153408  0.09980547  0.95771014     0.77300
C1884       C  0.71465448  0.06208982  0.90193304     0.77800
C1885       C  0.60476089  0.00360910  0.88381718     0.76700
C1886       C  0.66832668  0.08901270  0.81327390     0.77100
C1887       C  0.72466588  0.16281957  0.89309442     0.78300
C1888       C  0.59808149  0.10336685  0.87754449     0.77300
Zn1889     Zn  0.54907217  0.38065136  0.14042436     1.49700
Zn1890     Zn  0.55746882  0.43655718  0.10418733     1.49400
Zn1891     Zn  0.61222634  0.44345572  0.13913553     1.49100
Zn1892     Zn  0.58887299  0.40104937  0.08616829     1.49500
O1893       O  0.57694183  0.41496067  0.11809065    -1.84000
O1894       O  0.00310951  0.37181127  0.13312266    -0.74600
O1895       O  0.58395919  0.48233195  0.10812128    -0.74400
O1896       O  0.60827799  0.43214340  0.17836824    -0.73900
O1897       O  0.01545329  0.41932008  0.12192989    -0.74600
O1898       O  0.56251551  0.39061698  0.18098120    -0.74200
O1899       O  0.61848008  0.48578514  0.13857483    -0.74800
O1900       O  0.63503625  0.42604319  0.08102427    -0.74200
O1901       O  0.53966920  0.42197254  0.06652738    -0.74900
O1902       O  0.64916911  0.44535840  0.12308707    -0.74300
O1903       O  0.56045365  0.39438263  0.05355389    -0.74800
O1904       O  0.58203085  0.35994563  0.09340374    -0.74700
O1905       O  0.55141620  0.34214155  0.12880554    -0.74500
C1906       C  0.99581213  0.39221132  0.12804241     0.77300
C1907       C  0.60621338  0.49797381  0.12458644     0.77800
C1908       C  0.58695969  0.41181210  0.19239223     0.76700
C1909       C  0.65556797  0.43953416  0.09960760     0.77100
C1910       C  0.54122741  0.40357196  0.04968311     0.78300
C1911       C  0.56715670  0.33888843  0.11006726     0.77300
Zn1912     Zn  0.95553906  0.32130414  0.86159503     1.49700
Zn1913     Zn  0.94405130  0.36756900  0.89779596     1.49400
Zn1914     Zn  0.89103841  0.31960206  0.86115290     1.49100
Zn1915     Zn  0.91348933  0.29963893  0.91456879     1.49500
O1916       O  0.92596558  0.32653284  0.88352665    -1.84000
O1917       O  0.49749719  0.36055626  0.87080256    -0.74600
O1918       O  0.91805437  0.38719960  0.89153958    -0.74400
O1919       O  0.89677073  0.31223820  0.82233415    -0.73900
O1920       O  0.98299709  0.39255812  0.87925314    -0.74600
O1921       O  0.94338969  0.31754627  0.82135111    -0.74200
O1922       O  0.88389207  0.35563516  0.86107924    -0.74800
O1923       O  0.86653637  0.27551993  0.91594002    -0.74200
O1924       O  0.95787738  0.37079828  0.93686795    -0.74900
O1925       O  0.85363116  0.28364917  0.87473619    -0.74300
O1926       O  0.93736925  0.32271342  0.94947765    -0.74800
O1927       O  0.92529637  0.26757376  0.90828158    -0.74700
O1928       O  0.95610698  0.28246483  0.87296466    -0.74500
C1929       C  0.50363307  0.38727104  0.87835199     0.77300
C1930       C  0.89608570  0.38047745  0.87476417     0.77800
C1931       C  0.91914773  0.31377641  0.80926101     0.76700
C1932       C  0.84658736  0.26918529  0.89692826     0.77100
C1933       C  0.95504171  0.35118294  0.95431137     0.78300
C1934       C  0.94201692  0.26323618  0.89160848     0.77300
Zn1935     Zn  0.83854482  0.47128346  0.10709426     1.49700
Zn1936     Zn  0.79851325  0.41117467  0.13753707     1.49400
Zn1937     Zn  0.83950085  0.40985091  0.08907873     1.49100
Zn1938     Zn  0.86900866  0.44554980  0.14542134     1.49500
O1939       O  0.83656695  0.43407891  0.11928049    -1.84000
O1940       O  0.79706467  0.46820816  0.10537482    -0.74600
O1941       O  0.78133632  0.36771973  0.12825012    -0.74400
O1942       O  0.84977568  0.43544252  0.05352890    -0.73900
O1943       O  0.76834530  0.42294508  0.12385762    -0.74600
O1944       O  0.85340869  0.47855305  0.06946586    -0.74200
O1945       O  0.80061937  0.36677386  0.08796553    -0.74800
O1946       O  0.89076767  0.42259302  0.13829854    -0.74200
O1947       O  0.80286088  0.41476036  0.17828220    -0.74900
O1948       O  0.87415124  0.40082755  0.09768822    -0.74300
O1949       O  0.85336011  0.43678636  0.18305416    -0.74800
O1950       O  0.89902234  0.48998759  0.14318860    -0.74700
O1951       O  0.87008127  0.00880567  0.12120185    -0.74500
C1952       C  0.77099853  0.44604116  0.11140782     0.77300
C1953       C  0.78213563  0.35317121  0.10737825     0.77800
C1954       C  0.85610472  0.46316468  0.05026133     0.76700
C1955       C  0.89144029  0.40644392  0.11862407     0.77100
C1956       C  0.82684347  0.42489688  0.19319518     0.78300
C1957       C  0.89461226  0.01291451  0.13277781     0.77300
Zn1958     Zn  0.88297075  0.08531954  0.86006363     1.49700
Zn1959     Zn  0.91645508  0.04830157  0.85140736     1.49400
Zn1960     Zn  0.92400301  0.08335064  0.90910269     1.49100
Zn1961     Zn  0.86128117  0.02348734  0.89023212     1.49500
O1962       O  0.89659829  0.06038224  0.87805213    -1.84000
O1963       O  0.88663515  0.08573080  0.81898686    -0.74600
O1964       O  0.96096316  0.07021975  0.85922910    -0.74400
O1965       O  0.92734960  0.12593232  0.91321876    -0.73900
O1966       O  0.91246843  0.06101979  0.81393260    -0.74600
O1967       O  0.90883092  0.12820173  0.87258048    -0.74200
O1968       O  0.96726640  0.09379604  0.89900643    -0.74800
O1969       O  0.86878622  0.01610539  0.92832721    -0.74200
O1970       O  0.90086013  0.00315698  0.85247696    -0.74900
O1971       O  0.91095560  0.05643537  0.94405502    -0.74300
O1972       O  0.85491130  0.48592581  0.87650232    -0.74800
O1973       O  0.82364616  0.02765489  0.89090126    -0.74700
O1974       O  0.84049629  0.07297488  0.87203446    -0.74500
C1975       C  0.90072835  0.07613324  0.80403976     0.77300
C1976       C  0.97827591  0.08768634  0.87812808     0.77800
C1977       C  0.92311919  0.14102978  0.89454647     0.76700
C1978       C  0.88827503  0.02950089  0.94741715     0.77100
C1979       C  0.87581613  0.48208599  0.86584365     0.78300
C1980       C  0.81988463  0.04982241  0.88414414     0.77300
C1981       C  0.86071398  0.98072477  0.97292171    -0.20100
C1982       C  0.88344210  0.01197393  0.97327885    -0.06700
C1983       C  0.89960305  0.02476550  0.99804965     0.14200
C1984       C  0.89034863  0.50951174  0.02407431    -0.20200
C1985       C  0.86641679  0.47892719  0.02385029    -0.06700
C1986       C  0.84994779  0.46619466  0.99946873     0.14100
C1987       C  0.82369455  0.43387698  0.99805266    -0.23500
H1988       H  0.84758296  0.97040862  0.95462703     0.15400
H1989       H  0.90279378  0.51945613  0.04294914     0.15500
C1990       C  0.92460111  0.05756970  0.00043687    -0.23500
H1991       H  0.81272704  0.42775319  0.97753701     0.05700
H1992       H  0.80596179  0.43094603  0.01288261     0.08900
H1993       H  0.83214407  0.41786506  0.00275232     0.08900
H1994       H  0.91534864  0.07278543  0.99514003     0.08900
H1995       H  0.94358814  0.06165070  0.98667998     0.08900
H1996       H  0.93428567  0.06367305  0.02140369     0.05700
C1997       C  0.88056130  0.44011306  0.84367120    -0.20100
C1998       C  0.87396265  0.45193198  0.86695694    -0.06700
C1999       C  0.87142135  0.43777416  0.89222605     0.14200
C2000       C  0.87737060  0.41349910  0.89388197    -0.20200
C2001       C  0.88524183  0.40255890  0.87088263    -0.06700
C2002       C  0.88579865  0.41525767  0.84525512     0.14100
C2003       C  0.89369602  0.40389037  0.81986238    -0.23500
H2004       H  0.88278175  0.45112986  0.82438444     0.15400
H2005       H  0.87687826  0.40360636  0.91344217     0.15500
C2006       C  0.84890856  0.94003455  0.90745412    -0.23500
H2007       H  0.89395333  0.41695392  0.80176055     0.05700
H2008       H  0.87643202  0.37959321  0.81600360     0.08900
H2009       H  0.91672573  0.40616370  0.82223605     0.08900
H2010       H  0.82729521  0.93937770  0.90128964     0.08900
H2011       H  0.86591390  0.96314980  0.91496423     0.08900
H2012       H  0.84364225  0.92400011  0.92447311     0.05700
C2013       C  0.93211659  0.21706330  0.91771162    -0.20100
C2014       C  0.94345038  0.23436736  0.89392310    -0.06700
C2015       C  0.95268068  0.22199081  0.87238386     0.14200
C2016       C  0.94805290  0.19226130  0.87445138    -0.20200
C2017       C  0.93441397  0.17425738  0.89726491    -0.06700
C2018       C  0.92732088  0.18721440  0.91956544     0.14100
C2019       C  0.91282016  0.16900380  0.94456686    -0.23500
H2020       H  0.92554600  0.22635487  0.93463135     0.15400
H2021       H  0.95371558  0.18229349  0.85741111     0.15500
C2022       C  0.96595553  0.23897355  0.84652024    -0.23500
H2023       H  0.90802155  0.18235825  0.95984722     0.05700
H2024       H  0.92847229  0.16210633  0.95414947     0.08900
H2025       H  0.89080038  0.14834122  0.93898185     0.08900
H2026       H  0.48776397  0.26276434  0.85504145     0.08900
H2027       H  0.94913091  0.24377497  0.83616653     0.08900
H2028       H  0.47259062  0.22809861  0.83546628     0.05700
C2029       C  0.98205483  0.39123379  0.99041736    -0.20100
C2030       C  0.97457552  0.36242532  0.97966088    -0.06700
C2031       C  0.48533967  0.34566166  0.99765806     0.14200
C2032       C  0.50830211  0.36032492  0.01793675    -0.20200
C2033       C  0.51835685  0.39050923  0.02665501    -0.06700
C2034       C  0.00334527  0.40511428  0.01206132     0.14100
C2035       C  0.00942291  0.43580226  0.02252131    -0.23500
H2036       H  0.97111038  0.40310472  0.98170905     0.15400
H2037       H  0.51823352  0.34785506  0.02735101     0.15500
C2038       C  0.47615881  0.31340765  0.98936509    -0.23500
H2039       H  0.99700968  0.44474787  0.01031096     0.05700
H2040       H  0.03427692  0.45253593  0.02158408     0.08900
H2041       H  0.00146451  0.43393734  0.04373052     0.08900
H2042       H  0.48089825  0.31237033  0.96751576     0.08900
H2043       H  0.45140759  0.29818595  0.99312707     0.08900
H2044       H  0.48901397  0.30459811  0.00110816     0.05700
C2045       C  0.95003879  0.38175908  0.10175121    -0.20100
C2046       C  0.96385407  0.38520591  0.12742140    -0.06700
C2047       C  0.95106165  0.39108523  0.15031563     0.14200
C2048       C  0.92569739  0.39524279  0.14687038    -0.20200
C2049       C  0.91352199  0.39492462  0.12082261    -0.06700
C2050       C  0.92505275  0.38663347  0.09803702     0.14100
C2051       C  0.91280979  0.38478531  0.06958900    -0.23500
H2052       H  0.96052534  0.37779313  0.08419909     0.15400
H2053       H  0.91658926  0.40064782  0.16457624     0.15500
C2054       C  0.96549515  0.39502251  0.17810877    -0.23500
H2055       H  0.92504963  0.37847186  0.05444693     0.05700
H2056       H  0.91572174  0.40723679  0.06380301     0.08900
H2057       H  0.88820808  0.36713214  0.06840522     0.08900
H2058       H  0.49322016  0.42104951  0.17995631     0.08900
H2059       H  0.96588714  0.37394268  0.18351321     0.08900
H2060       H  0.95263565  0.39960626  0.19393686     0.05700
C2061       C  0.69062931  0.42131306  0.08605822    -0.20100
C2062       C  0.68706206  0.44559139  0.09547305    -0.06700
C2063       C  0.71282683  0.47224943  0.10600455     0.14200
C2064       C  0.74069753  0.47253757  0.10963056    -0.20200
C2065       C  0.74300218  0.44662409  0.10344301    -0.06700
C2066       C  0.71820103  0.42128257  0.09021939     0.14100
C2067       C  0.72055397  0.39406943  0.08059672    -0.23500
H2068       H  0.67107996  0.40127470  0.07734894     0.15400
H2069       H  0.76021098  0.49239209  0.11870050     0.15500
C2070       C  0.71100790  0.50032364  0.11345389    -0.23500
H2071       H  0.69964585  0.37734698  0.06916763     0.05700
H2072       H  0.72343769  0.38208721  0.09815015     0.08900
H2073       H  0.74035963  0.40161747  0.06689734     0.08900
H2074       H  0.69540335  0.49580720  0.13070986     0.08900
H2075       H  0.70257233  0.50752394  0.09565150     0.08900
H2076       H  0.73378364  0.51961379  0.11962104     0.05700
C2077       C  0.77768231  0.19200844  0.91217960    -0.20100
C2078       C  0.75478309  0.19179061  0.89517259    -0.06700
C2079       C  0.76181660  0.21861071  0.88089287     0.14200
C2080       C  0.79146501  0.24403886  0.88332111    -0.20200
C2081       C  0.81460496  0.24358672  0.89937053    -0.06700
C2082       C  0.80732879  0.21716873  0.91429261     0.14100
C2083       C  0.83085449  0.21442175  0.93145909    -0.23500
H2084       H  0.77278644  0.17188876  0.92352249     0.15400
H2085       H  0.79686929  0.26428326  0.87191438     0.15500
C2086       C  0.73862089  0.22085434  0.86290376    -0.23500
H2087       H  0.82123705  0.19167229  0.94087540     0.05700
H2088       H  0.83922771  0.23169949  0.94818705     0.08900
H2089       H  0.85031912  0.21765507  0.91870972     0.08900
H2090       H  0.71826096  0.21639584  0.87489755     0.08900
H2091       H  0.73170798  0.20419729  0.84574984     0.08900
H2092       H  0.74799488  0.24385282  0.85405386     0.05700
C2093       C  0.57076779  0.46032912  0.85663083    -0.20100
C2094       C  0.58229354  0.47384319  0.88229308    -0.06700
C2095       C  0.57192883  0.45601560  0.90581933     0.14200
C2096       C  0.54849385  0.42566817  0.90325419    -0.20200
C2097       C  0.53478799  0.41315372  0.87791734    -0.06700
C2098       C  0.54652381  0.43022701  0.85423225     0.14100
C2099       C  0.02514993  0.42208155  0.82030571    -0.23500
H2100       H  0.57908601  0.47407880  0.83861835     0.15400
H2101       H  0.53901331  0.41238937  0.92138489     0.15500
C2102       C  0.58498744  0.46898583  0.93364301    -0.23500
H2103       H  0.03484012  0.44023798  0.80488159     0.05700
H2104       H  0.00093521  0.41591988  0.82347930     0.08900
H2105       H  0.02595390  0.40191548  0.81219877     0.08900
H2106       H  0.57984798  0.48728920  0.93919594     0.08900
H2107       H  0.61017254  0.47836456  0.93381578     0.08900
H2108       H  0.57509860  0.45133703  0.94950683     0.05700
C2109       C  0.73690962  0.02936225  0.89095309    -0.20100
C2110       C  0.74039886  0.05597198  0.90374331    -0.06700
C2111       C  0.76991360  0.07902342  0.91226328     0.14200
C2112       C  0.79525736  0.07569795  0.90621395    -0.20200
C2113       C  0.79186292  0.04998653  0.89200974    -0.06700
C2114       C  0.76234710  0.02603329  0.88505158     0.14100
C2115       C  0.75778315  0.99795522  0.86994767    -0.23500
H2116       H  0.71427728  0.01180804  0.88424302     0.15400
H2117       H  0.81807582  0.09375621  0.91188864     0.15500
C2118       C  0.77520768  0.10813113  0.92592222    -0.23500
H2119       H  0.73321535  0.98206095  0.86512748     0.05700
H2120       H  0.76638323  0.98559403  0.88252366     0.08900
H2121       H  0.77036704  0.00453595  0.85053616     0.08900
H2122       H  0.76277596  0.10287543  0.94539332     0.08900
H2123       H  0.76705512  0.12018471  0.91241794     0.08900
H2124       H  0.79986181  0.12386725  0.93054739     0.05700
C2125       C  0.52855347  0.10419438  0.90273553    -0.20100
C2126       C  0.51112435  0.09732052  0.87863118    -0.06700
C2127       C  0.52559216  0.09936698  0.85336821     0.14200
C2128       C  0.55593841  0.10510027  0.85330055    -0.20200
C2129       C  0.57195980  0.10870433  0.87763450    -0.06700
C2130       C  0.55862080  0.10945023  0.90255733     0.14100
C2131       C  0.57544383  0.11394440  0.92920749    -0.23500
H2132       H  0.51798670  0.10334745  0.92203154     0.15400
H2133       H  0.56636853  0.10444969  0.83431183     0.15500
C2134       C  0.50939407  0.09508096  0.82634262    -0.23500
H2135       H  0.56230273  0.11533142  0.94664799     0.05700
H2136       H  0.59785975  0.13536196  0.92891554     0.08900
H2137       H  0.57914586  0.09439837  0.93261868     0.08900
H2138       H  0.99957315  0.11199245  0.82234861     0.08900
H2139       H  0.99233763  0.07296802  0.82106754     0.08900
H2140       H  0.52525583  0.10037620  0.80909905     0.05700
C2141       C  0.93260437  0.05620620  0.10697783    -0.20100
C2142       C  0.92196133  0.04338536  0.13248754    -0.06700
C2143       C  0.94000421  0.05745730  0.15596767     0.14200
C2144       C  0.96925954  0.08301141  0.15314822    -0.20200
C2145       C  0.98099593  0.09398492  0.12734429    -0.06700
C2146       C  0.96202568  0.08120994  0.10405040     0.14100
C2147       C  0.97220404  0.09303437  0.07584542    -0.23500
H2148       H  0.91860596  0.04546834  0.08894913     0.15400
H2149       H  0.98378408  0.09318777  0.17099165     0.15500
C2150       C  0.93235786  0.54384581  0.18660626    -0.23500
H2151       H  0.97266374  0.07504361  0.06304917     0.05700
H2152       H  0.99518722  0.11366914  0.07561183     0.08900
H2153       H  0.95577646  0.09916991  0.06664912     0.08900
H2154       H  0.92907224  0.52047253  0.18734572     0.08900
H2155       H  0.91054585  0.54307948  0.19179523     0.08900
H2156       H  0.94986813  0.55802773  0.20228134     0.05700
C2157       C  0.71682307  0.27491799  0.08666361    -0.20100
C2158       C  0.70858856  0.26078804  0.11218827    -0.06700
C2159       C  0.72835140  0.27540285  0.13479356     0.14200
C2160       C  0.75385659  0.30456306  0.13168846    -0.20200
C2161       C  0.76022830  0.31984175  0.10678680    -0.06700
C2162       C  0.74220770  0.30425321  0.08370815     0.14100
C2163       C  0.74830429  0.31910413  0.05637870    -0.23500
H2164       H  0.70236845  0.26358901  0.06902873     0.15400
H2165       H  0.76809191  0.31633222  0.14933910     0.15500
C2166       C  0.72204089  0.26153832  0.16261235    -0.23500
H2167       H  0.73150873  0.30386855  0.04067836     0.05700
H2168       H  0.77150972  0.32475829  0.04962896     0.08900
H2169       H  0.74673620  0.34023746  0.05771442     0.08900
H2170       H  0.72190440  0.23950859  0.16183511     0.08900
H2171       H  0.69964803  0.25792425  0.16984188     0.08900
H2172       H  0.73980807  0.27648930  0.17779998     0.05700
C2173       C  0.59722692  0.28402297  0.09627760    -0.20100
C2174       C  0.57191276  0.25598246  0.10263027    -0.06700
C2175       C  0.54431056  0.25492458  0.11033164     0.14200
C2176       C  0.54328263  0.28221562  0.11263491    -0.20200
C2177       C  0.56905434  0.31050321  0.10723384    -0.06700
C2178       C  0.59635968  0.31124847  0.09860576     0.14100
C2179       C  0.62538062  0.34066291  0.09301991    -0.23500
H2180       H  0.61844294  0.28481416  0.09072871     0.15400
H2181       H  0.52221517  0.28145126  0.11862073     0.15500
C2182       C  0.51570291  0.22506579  0.11550586    -0.23500
H2183       H  0.64497572  0.33691539  0.08897673     0.05700
H2184       H  0.63176012  0.35639928  0.11085548     0.08900
H2185       H  0.62214497  0.35146534  0.07473749     0.08900
H2186       H  0.51891761  0.21403986  0.13362005     0.08900
H2187       H  0.51011915  0.20967825  0.09750147     0.08900
H2188       H  0.00147511  0.23074625  0.13731469     0.05700
C2189       C  0.61409576  0.06850525  0.15784702    -0.20100
C2190       C  0.62356415  0.08727279  0.13513494    -0.06700
C2191       C  0.63055626  0.07710179  0.11082434     0.14200
C2192       C  0.62509262  0.04719620  0.10890201    -0.20200
C2193       C  0.61305292  0.02758256  0.13079871    -0.06700
C2194       C  0.60895106  0.03859625  0.15600181     0.14100
C2195       C  0.61028124  0.52497334  0.17958470    -0.23500
H2196       H  0.60839482  0.07639429  0.17629476     0.15400
H2197       H  0.62876666  0.03860424  0.08984810     0.15500
C2198       C  0.64202133  0.09726459  0.08638072    -0.23500
H2199       H  0.59471970  0.03035461  0.19817022     0.05700
H2200       H  0.62841797  0.51887925  0.18292174     0.08900
H2201       H  0.58762304  0.50391940  0.17761060     0.08900
H2202       H  0.66358929  0.11846635  0.09184988     0.08900
H2203       H  0.62468679  0.10325521  0.07930723     0.08900
H2204       H  0.64676568  0.08586477  0.06919823     0.05700
C2205       C  0.60288031  0.09619644  0.99114387    -0.20100
C2206       C  0.63295383  0.11278501  0.98148893    -0.06700
C2207       C  0.65219375  0.14261117  0.99237809     0.14200
C2208       C  0.64134299  0.15406377  0.01325504    -0.20200
C2209       C  0.61164630  0.13684187  0.02359540    -0.06700
C2210       C  0.59196816  0.10770419  0.01173460     0.14100
C2211       C  0.55900590  0.08873129  0.02000235    -0.23500
H2212       H  0.58754323  0.07384763  0.98241272     0.15400
H2213       H  0.65654501  0.17639477  0.02209669     0.15500
C2214       C  0.68388690  0.16298131  0.98174235    -0.23500
H2215       H  0.54625352  0.06824891  0.00665100     0.05700
H2216       H  0.54732901  0.10243712  0.01854377     0.08900
H2217       H  0.55767027  0.08055784  0.04102463     0.08900
H2218       H  0.68259312  0.16635906  0.95961200     0.08900
H2219       H  0.69854836  0.15266004  0.98553837     0.08900
H2220       H  0.69512506  0.18581026  0.99185210     0.05700
C2221       C  0.89046271  0.09126839  0.72982942    -0.20100
C2222       C  0.91895310  0.09768243  0.71927374    -0.06700
C2223       C  0.94173798  0.09893972  0.73721529     0.14200
C2224       C  0.93486576  0.09214860  0.76465755    -0.20200
C2225       C  0.90597868  0.08431882  0.77496704    -0.06700
C2226       C  0.88367834  0.08459659  0.75745842     0.14100
C2227       C  0.85236204  0.07657442  0.76742251    -0.23500
H2228       H  0.87292269  0.09025945  0.71616576     0.15400
H2229       H  0.95231614  0.09285776  0.77827298     0.15500
C2230       C  0.97358268  0.10794551  0.72787778    -0.23500
H2231       H  0.83732045  0.07644510  0.75068777     0.05700
H2232       H  0.85433650  0.09357194  0.78293510     0.08900
H2233       H  0.84119770  0.05353668  0.77640224     0.08900
H2234       H  0.98360499  0.13012889  0.71740549     0.08900
H2235       H  0.97297718  0.09023394  0.71398961     0.08900
H2236       H  0.98906461  0.11052443  0.74519528     0.05700
C2237       C  0.98866821  0.14039165  0.50831264    -0.20100
C2238       C  0.97254804  0.11040928  0.51782082    -0.06700
C2239       C  0.97871395  0.08835802  0.50611637     0.14200
C2240       C  0.49799443  0.09668752  0.48406333    -0.20200
C2241       C  0.51749340  0.12771112  0.47784706    -0.06700
C2242       C  0.51268972  0.14978664  0.49165272     0.14100
C2243       C  0.53083093  0.18336416  0.48559462    -0.23500
H2244       H  0.98404307  0.15741372  0.51717325     0.15400
H2245       H  0.50066555  0.07939678  0.47320173     0.15500
C2246       C  0.96242082  0.05589703  0.51550539    -0.23500
H2247       H  0.52312968  0.19690873  0.49772838     0.05700
H2248       H  0.52799122  0.18712111  0.46382563     0.08900
H2249       H  0.55540456  0.19231946  0.49069467     0.08900
H2250       H  0.93740306  0.04567222  0.51176159     0.08900
H2251       H  0.96690295  0.05520678  0.53754031     0.08900
H2252       H  0.97023534  0.04173673  0.50451587     0.05700
C2253       C  0.57730802  0.19218390  0.26811573    -0.20100
C2254       C  0.58880608  0.17644124  0.28308326    -0.06700
C2255       C  0.60482847  0.16402953  0.26904414     0.14200
C2256       C  0.60855686  0.16745129  0.24080020    -0.20200
C2257       C  0.59668795  0.18275668  0.22570441    -0.06700
C2258       C  0.58114025  0.19568504  0.23976290     0.14100
C2259       C  0.56914209  0.21391315  0.22534271    -0.23500
H2260       H  0.56547574  0.20209917  0.27873579     0.15400
H2261       H  0.62017318  0.15723772  0.23028304     0.15500
C2262       C  0.61697781  0.14583057  0.28328968    -0.23500
H2263       H  0.56004139  0.22435961  0.23982048     0.05700
H2264       H  0.55011060  0.19899126  0.21119911     0.08900
H2265       H  0.58789207  0.23262607  0.21396811     0.08900
H2266       H  0.59811102  0.12680871  0.29423906     0.08900
H2267       H  0.63573105  0.16064251  0.29772156     0.08900
H2268       H  0.62651202  0.13579341  0.26882665     0.05700
C2269       C  0.69392524  0.08593897  0.77132113    -0.20100
C2270       C  0.66962477  0.08779740  0.78327758    -0.06700
C2271       C  0.64537886  0.08509707  0.76665238     0.14200
C2272       C  0.64597273  0.08057283  0.73853594    -0.20200
C2273       C  0.67025547  0.07872954  0.72634816    -0.06700
C2274       C  0.69479144  0.08180688  0.74305541     0.14100
C2275       C  0.72141455  0.07977560  0.73155447    -0.23500
H2276       H  0.71224509  0.08754061  0.78425719     0.15400
H2277       H  0.62718243  0.07844584  0.72596057     0.15500
C2278       C  0.61812530  0.08557944  0.77862101    -0.23500
H2279       H  0.73754024  0.08103979  0.74776468     0.05700
H2280       H  0.73448819  0.09900628  0.71768445     0.08900
H2281       H  0.71295194  0.05779300  0.72035174     0.08900
H2282       H  0.62556552  0.10792475  0.78878809     0.08900
H2283       H  0.60705226  0.06713590  0.79365184     0.08900
H2284       H  0.60070707  0.08205794  0.76281710     0.05700
C2285       C  0.76849369  0.05769464  0.58777738    -0.20100
C2286       C  0.75483090  0.04764394  0.61318807    -0.06700
C2287       C  0.77032423  0.04091230  0.63348122     0.14200
C2288       C  0.79986245  0.04592195  0.62846486    -0.20200
C2289       C  0.81463621  0.05814134  0.60380063    -0.06700
C2290       C  0.79838196  0.06320801  0.58286023     0.14100
C2291       C  0.81317111  0.07636733  0.55618453    -0.23500
H2292       H  0.75641494  0.06294650  0.57228325     0.15400
H2293       H  0.81227370  0.04192170  0.64455723     0.15500
C2294       C  0.75611576  0.02953843  0.66074754    -0.23500
H2295       H  0.79745685  0.07956267  0.54233540     0.05700
H2296       H  0.81962506  0.06074176  0.54594133     0.08900
H2297       H  0.83398460  0.09891272  0.55971424     0.08900
H2298       H  0.73415910  0.00784347  0.65798967     0.08900
H2299       H  0.75165438  0.04667172  0.67084829     0.08900
H2300       H  0.77130022  0.02528242  0.67435070     0.05700
C2301       C  0.57465129  0.10990253  0.59797866    -0.20100
C2302       C  0.58534037  0.10280341  0.62177262    -0.06700
C2303       C  0.57435338  0.10647450  0.64731392     0.14200
C2304       C  0.55099104  0.11392761  0.64797964    -0.20200
C2305       C  0.53858933  0.11831944  0.62409976    -0.06700
C2306       C  0.55125236  0.11744802  0.59881982     0.14100
C2307       C  0.03480961  0.11760464  0.56857809    -0.23500
H2308       H  0.58331530  0.10780000  0.57845814     0.15400
H2309       H  0.54111172  0.11473712  0.66726810     0.15500
C2310       C  0.58655584  0.10232587  0.67413809    -0.23500
H2311       H  0.55082372  0.12031691  0.55465627     0.05700
H2312       H  0.03666071  0.14029809  0.56637497     0.08900
H2313       H  0.01025119  0.09982331  0.56883974     0.08900
H2314       H  0.61189609  0.11666989  0.67500177     0.08900
H2315       H  0.57968300  0.07802102  0.67694162     0.08900
H2316       H  0.57736475  0.10919584  0.69161280     0.05700
C2317       C  0.65289490  0.00123430  0.51664185    -0.20100
C2318       C  0.63887979  0.01856137  0.52329862    -0.06700
C2319       C  0.61371717  0.01468647  0.50735275     0.14200
C2320       C  0.59627019  0.48781977  0.48977811    -0.20200
C2321       C  0.61086822  0.47085110  0.48309215    -0.06700
C2322       C  0.63699244  0.47629529  0.49882018     0.14100
C2323       C  0.65469115  0.45995053  0.49332177    -0.23500
H2324       H  0.67209627  0.00399073  0.52901305     0.15400
H2325       H  0.57638004  0.48418796  0.47803435     0.15500
C2326       C  0.59749948  0.03226733  0.51364237    -0.23500
H2327       H  0.67419895  0.46706121  0.50784006     0.05700
H2328       H  0.66434525  0.46517841  0.47261206     0.08900
H2329       H  0.63947880  0.43500794  0.49541083     0.08900
H2330       H  0.61370127  0.05706190  0.51186795     0.08900
H2331       H  0.58844206  0.02732621  0.53457559     0.08900
H2332       H  0.57795930  0.02613505  0.49939977     0.05700
C2333       C  0.62569098  0.05290791  0.35264875    -0.20100
C2334       C  0.62783396  0.03897287  0.37625204    -0.06700
C2335       C  0.62956500  0.05252849  0.40193986     0.14200
C2336       C  0.62503216  0.07761219  0.40366803    -0.20200
C2337       C  0.61928758  0.08943555  0.38022559    -0.06700
C2338       C  0.62144468  0.07824610  0.35432209     0.14100
C2339       C  0.61655515  0.09111515  0.32852043    -0.23500
H2340       H  0.62443569  0.04229629  0.33308284     0.15400
H2341       H  0.62414979  0.08685797  0.42338366     0.15500
C2342       C  0.63432569  0.03938758  0.42763464    -0.23500
H2343       H  0.61788618  0.07883548  0.31020080     0.05700
H2344       H  0.63451227  0.11539704  0.32694694     0.08900
H2345       H  0.59357881  0.08918995  0.32853910     0.08900
H2346       H  0.65583534  0.03836629  0.42639588     0.08900
H2347       H  0.61480286  0.01618335  0.43038983     0.08900
H2348       H  0.63594506  0.05329600  0.44585964     0.05700
C2349       C  0.54343194  0.25991497  0.38348994    -0.20100
C2350       C  0.56229532  0.25408176  0.40063588    -0.06700
C2351       C  0.58175468  0.27719519  0.41982417     0.14200
C2352       C  0.58345057  0.30576713  0.41950249    -0.20200
C2353       C  0.56639465  0.31230726  0.40084959    -0.06700
C2354       C  0.54496950  0.28843456  0.38338820     0.14100
C2355       C  0.52338440  0.29236618  0.36450821    -0.23500
H2356       H  0.52777753  0.24221762  0.36945085     0.15400
H2357       H  0.59937445  0.32364925  0.43326573     0.15500
C2358       C  0.60165797  0.27286027  0.44043862    -0.23500
H2359       H  0.50629498  0.27042698  0.35475724     0.05700
H2360       H  0.53623906  0.30802957  0.34788045     0.08900
H2361       H  0.51055756  0.30128514  0.37607547     0.08900
H2362       H  0.61863668  0.26861630  0.42995419     0.08900
H2363       H  0.58719457  0.25358427  0.45384847     0.08900
H2364       H  0.61476700  0.29331963  0.45374598     0.05700
C2365       C  0.60789214  0.44210152  0.26563613    -0.20100
C2366       C  0.59709922  0.41516176  0.28035986    -0.06700
C2367       C  0.58336155  0.38686425  0.26574567     0.14200
C2368       C  0.58041819  0.38649063  0.23719552    -0.20200
C2369       C  0.59085811  0.41347100  0.22261235    -0.06700
C2370       C  0.60478022  0.44167999  0.23719931     0.14100
C2371       C  0.61499724  0.47151022  0.22320986    -0.23500
H2372       H  0.61799430  0.46374867  0.27654608     0.15400
H2373       H  0.56996474  0.36492480  0.22613261     0.15500
C2374       C  0.57215657  0.35685673  0.27978512    -0.23500
H2375       H  0.62297712  0.49088248  0.23792105     0.05700
H2376       H  0.59550860  0.47023363  0.21134192     0.08900
H2377       H  0.63435727  0.47661620  0.20959767     0.08900
H2378       H  0.55223876  0.35188767  0.29261437     0.08900
H2379       H  0.59090485  0.35759276  0.29246077     0.08900
H2380       H  0.56451117  0.33759186  0.26500277     0.05700
C2381       C  0.93262958  0.33868124  0.73608825    -0.20100
C2382       C  0.90529646  0.31643848  0.72348458    -0.06700
C2383       C  0.88410099  0.29131946  0.73873995     0.14200
C2384       C  0.89002003  0.29017075  0.76654759    -0.20200
C2385       C  0.91693087  0.31294340  0.77927228    -0.06700
C2386       C  0.93880178  0.33715316  0.76370043     0.14100
C2387       C  0.96786360  0.36236136  0.77641998    -0.23500
H2388       H  0.94915831  0.35761472  0.72429457     0.15400
H2389       H  0.87320610  0.27177525  0.77863636     0.15500
C2390       C  0.85463477  0.26641855  0.72626503    -0.23500
H2391       H  0.98195733  0.37996200  0.76145943     0.05700
H2392       H  0.98189762  0.35286294  0.78476507     0.08900
H2393       H  0.96216835  0.37367684  0.79299861     0.08900
H2394       H  0.85967914  0.25397687  0.71026505     0.08900
H2395       H  0.84127836  0.27637478  0.71730362     0.08900
H2396       H  0.84012844  0.24951282  0.74154825     0.05700
C2397       C  0.74265125  0.19265084  0.63524609    -0.20100
C2398       C  0.73585154  0.17690666  0.61009814    -0.06700
C2399       C  0.75150716  0.19306369  0.58676676     0.14200
C2400       C  0.77488294  0.22378959  0.58960554    -0.20200
C2401       C  0.78311603  0.23850501  0.61519079    -0.06700
C2402       C  0.76617402  0.22303588  0.63809827     0.14100
C2403       C  0.77341913  0.23839162  0.66573745    -0.23500
H2404       H  0.73030835  0.18065702  0.65311888     0.15400
H2405       H  0.78821342  0.23569693  0.57210973     0.15500
C2406       C  0.74521908  0.17758001  0.55929213    -0.23500
H2407       H  0.75742282  0.22332833  0.68134872     0.05700
H2408       H  0.77151169  0.25933898  0.66488247     0.08900
H2409       H  0.79700486  0.24459255  0.67231613     0.08900
H2410       H  0.72112892  0.16952367  0.55294667     0.08900
H2411       H  0.74925752  0.15789989  0.56016727     0.08900
H2412       H  0.76031500  0.19328256  0.54353902     0.05700
C2413       C  0.52677097  0.42182963  0.60614429    -0.20100
C2414       C  0.50927061  0.41023867  0.62960427    -0.06700
C2415       C  0.52366426  0.42114943  0.65549580     0.14200
C2416       C  0.55417722  0.44496796  0.65699411    -0.20200
C2417       C  0.57082673  0.45768933  0.63347668    -0.06700
C2418       C  0.55727521  0.44556592  0.60775260     0.14100
C2419       C  0.57107113  0.95105943  0.57823336    -0.23500
H2420       H  0.51607242  0.41343474  0.58633317     0.15400
H2421       H  0.56476857  0.45457614  0.67661750     0.15500
C2422       C  0.50732370  0.40799303  0.68171373    -0.23500
H2423       H  0.55654801  0.93807772  0.56041219     0.05700
H2424       H  0.59161791  0.94826808  0.57846266     0.08900
H2425       H  0.57827730  0.97548789  0.57551925     0.08900
H2426       H  0.49763012  0.38288835  0.68141277     0.08900
H2427       H  0.98966083  0.40468307  0.68408759     0.08900
H2428       H  0.52308325  0.41741983  0.69960351     0.05700
C2429       C  0.90626608  0.19835775  0.59439188    -0.20100
C2430       C  0.93531970  0.20357800  0.60266363    -0.06700
C2431       C  0.95961681  0.23398139  0.60555346     0.14200
C2432       C  0.95358168  0.25823171  0.60201979    -0.20200
C2433       C  0.92393273  0.25266258  0.59553836    -0.06700
C2434       C  0.90031856  0.22237405  0.59068079     0.14100
C2435       C  0.86823547  0.21455320  0.58238408    -0.23500
H2436       H  0.88768959  0.17515440  0.59139853     0.15400
H2437       H  0.97152915  0.28144987  0.60619507     0.15500
C2438       C  0.48972289  0.23717369  0.62427529    -0.23500
H2439       H  0.86173302  0.20119035  0.56302114     0.05700
H2440       H  0.86589289  0.23498623  0.57910001     0.08900
H2441       H  0.85195574  0.20060859  0.59831326     0.08900
H2442       H  0.50173993  0.22991327  0.60977763     0.08900
H2443       H  0.48512424  0.22393299  0.64320604     0.08900
H2444       H  0.50521257  0.26161699  0.62948695     0.05700
C2445       C  0.88916438  0.47334394  0.64969866    -0.20100
C2446       C  0.88718942  0.48273473  0.62320144    -0.16300
C2447       C  0.87440392  0.46021365  0.60220930     0.14200
C2448       C  0.86658128  0.42995319  0.60785232    -0.20200
C2449       C  0.87151596  0.42150449  0.63372044    -0.06700
C2450       C  0.88142784  0.44316972  0.65520497     0.14100
C2451       C  0.88416915  0.43521847  0.68412863    -0.23500
H2452       H  0.89756940  0.48984207  0.66634612     0.15400
H2453       H  0.85884527  0.41329628  0.59135947     0.15500
C2454       C  0.87046279  0.46786614  0.57348145    -0.23500
H2455       H  0.87011503  0.44121484  0.69738282     0.05700
H2456       H  0.90844551  0.44833805  0.69111250     0.08900
H2457       H  0.87588411  0.41057171  0.68661912     0.08900
H2458       H  0.89297061  0.48493395  0.56534613     0.08900
H2459       H  0.85436345  0.47691723  0.57297476     0.08900
H2460       H  0.86092216  0.44752976  0.55978920     0.05700
C2461       C  0.84376069  0.43894008  0.26852260    -0.20100
C2462       C  0.82300821  0.41026920  0.27886782    -0.06700
C2463       C  0.80140975  0.38734592  0.26112914     0.14200
C2464       C  0.80222689  0.39331574  0.23325173    -0.20200
C2465       C  0.82409677  0.42150968  0.22285145    -0.06700
C2466       C  0.84455519  0.44492998  0.24080529     0.14100
C2467       C  0.86687528  0.47644500  0.23103426    -0.23500
H2468       H  0.85969600  0.45683629  0.28228152     0.15400
H2469       H  0.78654804  0.37545185  0.21934422     0.15500
C2470       C  0.77850507  0.35626584  0.27115337    -0.23500
H2471       H  0.87929118  0.49244544  0.24821586     0.05700
H2472       H  0.85437557  0.48576569  0.21947400     0.08900
H2473       H  0.88433462  0.47573995  0.21793277     0.08900
H2474       H  0.76264116  0.35820941  0.28549369     0.08900
H2475       H  0.79063144  0.34578605  0.28152345     0.08900
H2476       H  0.76446724  0.34075150  0.25422234     0.05700
C2477       C  0.88526559  0.37506482  0.47741227    -0.20100
C2478       C  0.86686553  0.38894497  0.47793991    -0.06700
C2479       C  0.85645990  0.39340965  0.50314459     0.14200
C2480       C  0.86379298  0.38296398  0.52686675    -0.20200
C2481       C  0.88097159  0.36776134  0.52618297    -0.06700
C2482       C  0.89230988  0.36431017  0.50108132     0.14100
C2483       C  0.91036042  0.34791057  0.49876811    -0.23500
H2484       H  0.89340415  0.37167376  0.45810298     0.15400
H2485       H  0.85531965  0.38604815  0.54609841     0.15500
C2486       C  0.83623976  0.40752205  0.50507396    -0.23500
H2487       H  0.91569189  0.34565009  0.47735163     0.05700
H2488       H  0.89692634  0.32458472  0.50694846     0.08900
H2489       H  0.93238536  0.36072431  0.51019301     0.08900
H2490       H  0.81522260  0.39419567  0.49238806     0.08900
H2491       H  0.84880349  0.43139766  0.49802641     0.08900
H2492       H  0.82897268  0.40784744  0.52623965     0.05700
C2493       C  0.95088046  0.06614583  0.39475401    -0.20100
C2494       C  0.96673923  0.07429066  0.37022177    -0.06700
C2495       C  0.95600884  0.05342454  0.34821705     0.14200
C2496       C  0.93053092  0.02432481  0.35164084    -0.20200
C2497       C  0.91598974  0.01491225  0.37695656    -0.06700
C2498       C  0.92578347  0.03676424  0.39856341     0.14100
C2499       C  0.91134276  0.02917897  0.42614965    -0.23500
H2500       H  0.95976210  0.08216336  0.41179355     0.15400
H2501       H  0.92296181  0.00832202  0.33461443     0.15500
C2502       C  0.97237552  0.06144929  0.32150559    -0.23500
H2503       H  0.92227886  0.04901760  0.44045808     0.05700
H2504       H  0.91391815  0.01051256  0.43516470     0.08900
H2505       H  0.88671872  0.02228641  0.42429999     0.08900
H2506       H  0.49348432  0.06696406  0.32458966     0.08900
H2507       H  0.97274888  0.08200322  0.31328184     0.08900
H2508       H  0.96090990  0.04264633  0.30623185     0.05700
C2509       C  0.73888495  0.27010880  0.39456523    -0.20100
C2510       C  0.74064246  0.29860407  0.39721226    -0.06700
C2511       C  0.71546006  0.30026670  0.40802630     0.14200
C2512       C  0.68828963  0.27324122  0.41363186    -0.20200
C2513       C  0.68551597  0.24470457  0.40822802    -0.06700
C2514       C  0.71144078  0.24307779  0.39960171     0.14100
C2515       C  0.71012932  0.21284671  0.39543471    -0.23500
H2516       H  0.75849374  0.26892225  0.38728267     0.15400
H2517       H  0.66850111  0.27439971  0.42029156     0.15500
C2518       C  0.71693947  0.33038105  0.41374537    -0.23500
H2519       H  0.73282993  0.21581560  0.39001498     0.05700
H2520       H  0.69378865  0.19955878  0.37874432     0.08900
H2521       H  0.70276682  0.19966532  0.41446224     0.08900
H2522       H  0.71922562  0.34255098  0.39452864     0.08900
H2523       H  0.73675737  0.34467542  0.42745874     0.08900
H2524       H  0.69590743  0.32729139  0.42376039     0.05700
C2525       C  0.92933708  0.37051843  0.39252558    -0.20100
C2526       C  0.92069324  0.37657087  0.36715773    -0.06700
C2527       C  0.94050076  0.38353709  0.34493955     0.14200
C2528       C  0.96935248  0.38612020  0.34911219    -0.20200
C2529       C  0.97904448  0.38305189  0.37512810    -0.06700
C2530       C  0.95857914  0.37426520  0.39691203     0.14100
C2531       C  0.96775076  0.36940833  0.42483364    -0.23500
H2532       H  0.91404138  0.36514730  0.40952896     0.15400
H2533       H  0.98517178  0.39255253  0.33241196     0.15500
C2534       C  0.93146505  0.38860754  0.31703610    -0.23500
H2535       H  0.94858002  0.36169358  0.43923280     0.05700
H2536       H  0.98708882  0.39099090  0.43306817     0.08900
H2537       H  0.97473637  0.35174914  0.42376103     0.08900
H2538       H  0.92833342  0.40884143  0.31726736     0.08900
H2539       H  0.90974784  0.36821851  0.31034623     0.08900
H2540       H  0.94922605  0.39257897  0.30185544     0.05700
C2541       C  0.74991985  0.44788109  0.37281472    -0.20100
C2542       C  0.75840727  0.43937092  0.39707228    -0.06700
C2543       C  0.74162901  0.43632701  0.42077439     0.14200
C2544       C  0.71543894  0.43954680  0.41902420    -0.20200
C2545       C  0.70537392  0.44541115  0.39413366    -0.06700
C2546       C  0.72364674  0.45076917  0.37089977     0.14100
C2547       C  0.71477079  0.95228044  0.33997216    -0.23500
H2548       H  0.76312442  0.45065892  0.35469524     0.15400
H2549       H  0.70188752  0.43601108  0.43703678     0.15500
C2550       C  0.74995489  0.42775017  0.44744968    -0.23500
H2551       H  0.73084241  0.95326122  0.32416106     0.05700
H2552       H  0.71463461  0.97416167  0.33952833     0.08900
H2553       H  0.69168266  0.93311120  0.33443402     0.08900
H2554       H  0.77331495  0.44555856  0.45401028     0.08900
H2555       H  0.74921661  0.40550236  0.44523147     0.08900
H2556       H  0.73388669  0.42561877  0.46372329     0.05700
Zn2557     Zn  0.79573030  0.88425143  0.36265169     1.49700
Zn2558     Zn  0.84074164  0.92955007  0.41088137     1.49400
Zn2559     Zn  0.83487454  0.86420242  0.39617620     1.49100
Zn2560     Zn  0.86599687  0.91839392  0.35539034     1.49500
O2561       O  0.83438058  0.89958356  0.38171397    -1.84000
O2562       O  0.77896893  0.91025949  0.37381595    -0.74600
O2563       O  0.85276554  0.91677479  0.44721909    -0.74400
O2564       O  0.79271155  0.82688887  0.39842518    -0.73900
O2565       O  0.80219810  0.93395771  0.41266198    -0.74600
O2566       O  0.76501471  0.84274488  0.37575708    -0.74200
O2567       O  0.85033321  0.87349424  0.43386108    -0.74800
O2568       O  0.89397531  0.90145015  0.35859747    -0.74200
O2569       O  0.87544604  0.97218740  0.40066589    -0.74900
O2570       O  0.86654128  0.85687819  0.37891491    -0.74300
O2571       O  0.89083245  0.96334047  0.36142431    -0.74800
O2572       O  0.84923244  0.91288875  0.31774888    -0.74700
O2573       O  0.79872083  0.88647172  0.32132426    -0.74500
C2574       C  0.78153420  0.92700109  0.39422938     0.77300
C2575       C  0.85643913  0.89385434  0.45192066     0.77800
C2576       C  0.76689968  0.82310203  0.39036343     0.76700
C2577       C  0.89101686  0.87674063  0.36780599     0.77100
C2578       C  0.89268909  0.98185772  0.38000724     0.78300
C2579       C  0.82259182  0.90053950  0.30698988     0.77300
Zn2580     Zn  0.90897049  0.86426969  0.65070598     1.49700
Zn2581     Zn  0.87650054  0.79399481  0.64016341     1.49400
Zn2582     Zn  0.85503380  0.83386208  0.60772069     1.49100
Zn2583     Zn  0.92073906  0.83867411  0.59429555     1.49500
O2584       O  0.89057044  0.83268337  0.62282853    -1.84000
O2585       O  0.90473924  0.84768621  0.68838438    -0.74600
O2586       O  0.83266805  0.76475299  0.63012797    -0.74400
O2587       O  0.85050905  0.86902820  0.62275526    -0.73900
O2588       O  0.88347216  0.79792384  0.68081869    -0.74600
O2589       O  0.89368474  0.89401281  0.64709456    -0.74200
O2590       O  0.81625659  0.79209144  0.60758364    -0.74800
O2591       O  0.90861828  0.85207013  0.55851109    -0.74200
O2592       O  0.90055910  0.77539372  0.62681940    -0.74900
O2593       O  0.86358317  0.84687757  0.56964256    -0.74300
O2594       O  0.92708978  0.80105048  0.59109258    -0.74800
O2595       O  0.96284768  0.87283253  0.60637580    -0.74700
O2596       O  0.95384606  0.88812521  0.64567492    -0.74500
C2597       C  0.89566229  0.82088629  0.69694483     0.77300
C2598       C  0.81192112  0.76680602  0.61689668     0.77800
C2599       C  0.87048533  0.89297943  0.63539630     0.76700
C2600       C  0.88508265  0.85467689  0.55282594     0.77100
C2601       C  0.91879114  0.77906045  0.60767536     0.78300
C2602       C  0.97244863  0.88974467  0.62770220     0.77300
Zn2603     Zn  0.56897262  0.89421234  0.36106699     1.49700
Zn2604     Zn  0.61217841  0.91336532  0.41314552     1.49400
Zn2605     Zn  0.63141204  0.95620526  0.36003459     1.49100
Zn2606     Zn  0.57694705  0.94737311  0.39858876     1.49500
O2607       O  0.59796576  0.92798051  0.38304847    -1.84000
O2608       O  0.56671072  0.85624372  0.37308629    -0.74600
O2609       O  0.65552402  0.92444299  0.40615916    -0.74400
O2610       O  0.62179185  0.94436741  0.31936751    -0.73900
O2611       O  0.58783500  0.86649445  0.41431279    -0.74600
O2612       O  0.57973067  0.89961107  0.32234464    -0.74200
O2613       O  0.66986436  0.95542762  0.37092082    -0.74800
O2614       O  0.59283150  0.98792627  0.38273920    -0.74200
O2615       O  0.61511853  0.93681164  0.44836634    -0.74900
O2616       O  0.63107302  0.49579639  0.36928848    -0.74300
O2617       O  0.58832778  0.95908433  0.43754101    -0.74800
O2618       O  0.53137977  0.92295434  0.39326749    -0.74700
O2619       O  0.52660025  0.88772806  0.36322062    -0.74500
C2620       C  0.57306583  0.84744610  0.39495961     0.77300
C2621       C  0.67572320  0.94137567  0.38931157     0.77800
C2622       C  0.60000996  0.92037522  0.30806242     0.76700
C2623       C  0.61087689  0.50208079  0.37769076     0.77100
C2624       C  0.60562909  0.95537906  0.45413872     0.78300
C2625       C  0.51501232  0.90027958  0.37761847     0.77300
Zn2626     Zn  0.69757477  0.58978110  0.64213463     1.49700
Zn2627     Zn  0.65978651  0.52772767  0.61117467     1.49400
Zn2628     Zn  0.62731913  0.55453224  0.64738785     1.49100
Zn2629     Zn  0.65589610  0.58674633  0.59081461     1.49500
O2630       O  0.65999638  0.56486325  0.62240937    -1.84000
O2631       O  0.72888925  0.57841681  0.63036521    -0.74600
O2632       O  0.62157294  0.98581930  0.62065312    -0.74400
O2633       O  0.64174078  0.56607359  0.68605127    -0.73900
O2634       O  0.70213848  0.53160068  0.61277871    -0.74600
O2635       O  0.69241792  0.58910666  0.68329785    -0.74200
O2636       O  0.59719853  0.51010965  0.64363837    -0.74800
O2637       O  0.62264779  0.59806880  0.59837069    -0.74200
O2638       O  0.64865656  0.52063562  0.57235555    -0.74900
O2639       O  0.60609468  0.57744645  0.63856550    -0.74300
O2640       O  0.64412614  0.55891271  0.55570134    -0.74800
O2641       O  0.69522142  0.62886417  0.58842014    -0.74700
O2642       O  0.71376147  0.63242146  0.63049826    -0.74500
C2643       C  0.72772956  0.55514270  0.61883791     0.77300
C2644       C  0.59726372  0.98339361  0.63092430     0.77800
C2645       C  0.66819268  0.57981119  0.69720564     0.76700
C2646       C  0.60600022  0.59367281  0.61914202     0.77100
C2647       C  0.64241957  0.53283560  0.55277364     0.78300
C2648       C  0.71320835  0.64453607  0.60812820     0.77300
Zn2649     Zn  0.58381798  0.68800155  0.41902803     1.49700
Zn2650     Zn  0.54203116  0.66721794  0.36400907     1.49400
Zn2651     Zn  0.60594584  0.66784914  0.36682260     1.49100
Zn2652     Zn  0.55104430  0.62106131  0.40030558     1.49500
O2653       O  0.57089060  0.66177828  0.38705582    -1.84000
O2654       O  0.57389666  0.72051886  0.41222019    -0.74600
O2655       O  0.55567079  0.67103274  0.32386183    -0.74400
O2656       O  0.64327792  0.70325542  0.38237686    -0.73900
O2657       O  0.54333757  0.70716793  0.37594927    -0.74600
O2658       O  0.63054697  0.71139172  0.42363192    -0.74200
O2659       O  0.60151279  0.67499858  0.32778406    -0.74800
O2660       O  0.57780297  0.60222190  0.39797667    -0.74200
O2661       O  0.00142517  0.63006963  0.36775034    -0.74900
O2662       O  0.61247507  0.63191900  0.36821629    -0.74300
O2663       O  0.01490308  0.59497989  0.37595290    -0.74800
O2664       O  0.53306803  0.61806399  0.43734770    -0.74700
O2665       O  0.55783395  0.66600570  0.45188867    -0.74500
C2666       C  0.55804151  0.72598447  0.39545436     0.77300
C2667       C  0.58048665  0.67484771  0.31318791     0.77800
C2668       C  0.65042193  0.71722788  0.40521180     0.76700
C2669       C  0.60011442  0.60806826  0.38243931     0.77100
C2670       C  0.99456332  0.60238488  0.37148256     0.78300
C2671       C  0.53701054  0.63831419  0.45497943     0.77300
Zn2672     Zn  0.90401601  0.56906644  0.58548977     1.49700
Zn2673     Zn  0.90513802  0.61349215  0.63491189     1.49400
Zn2674     Zn  0.94221059  0.58004442  0.64049979     1.49100
Zn2675     Zn  0.96399090  0.63461083  0.59946969     1.49500
O2676       O  0.92842276  0.59914069  0.61458621    -1.84000
O2677       O  0.86155851  0.56670202  0.58274373    -0.74600
O2678       O  0.90524219  0.60763896  0.67585549    -0.74400
O2679       O  0.91844499  0.53470148  0.63651577    -0.73900
O2680       O  0.86240139  0.59083562  0.62136829    -0.74600
O2681       O  0.89342617  0.52601392  0.59730515    -0.74200
O2682       O  0.93615833  0.58842614  0.67910460    -0.74800
O2683       O  0.50115438  0.63727066  0.61593214    -0.74200
O2684       O  0.91964728  0.65758845  0.62714012    -0.74900
O2685       O  0.98609994  0.59371231  0.63409379    -0.74300
O2686       O  0.96163508  0.67384712  0.60257402    -0.74800
O2687       O  0.96665705  0.62738748  0.56044282    -0.74700
O2688       O  0.92990058  0.58040102  0.54950460    -0.74500
C2689       C  0.84837457  0.57496947  0.60039278     0.77300
C2690       C  0.91960506  0.59780903  0.69025566     0.77800
C2691       C  0.90019514  0.51615884  0.61856302     0.76700
C2692       C  0.50643600  0.61671539  0.62497897     0.77100
C2693       C  0.94163597  0.67848737  0.61406312     0.78300
C2694       C  0.95427758  0.60526184  0.54355983     0.77300
Zn2695     Zn  0.62757156  0.67679776  0.14449163     1.49700
Zn2696     Zn  0.57163925  0.62809919  0.10735606     1.49400
Zn2697     Zn  0.56419435  0.67625202  0.14106787     1.49100
Zn2698     Zn  0.60667227  0.69580657  0.08910001     1.49500
O2699       O  0.59302853  0.66960914  0.12064865    -1.84000
O2700       O  0.63538955  0.64096576  0.13958370    -0.74600
O2701       O  0.52635838  0.60709537  0.11369777    -0.74400
O2702       O  0.57386943  0.68072293  0.18052921    -0.73900
O2703       O  0.58905669  0.60510007  0.12493322    -0.74600
O2704       O  0.61664910  0.67851764  0.18480933    -0.74200
O2705       O  0.52145187  0.64131290  0.13855674    -0.74800
O2706       O  0.58362722  0.71964868  0.08640431    -0.74200
O2707       O  0.58040979  0.62465258  0.06831371    -0.74900
O2708       O  0.56362914  0.71264080  0.12766184    -0.74300
O2709       O  0.60723537  0.67235560  0.05482975    -0.74800
O2710       O  0.65040639  0.72804334  0.09518026    -0.74700
O2711       O  0.66577368  0.71662167  0.13341518    -0.74500
C2712       C  0.61620766  0.61339182  0.13293288     0.77300
C2713       C  0.51006506  0.61529804  0.12708409     0.77800
C2714       C  0.59404496  0.67965865  0.19537985     0.76700
C2715       C  0.57031583  0.72632324  0.10514515     0.77100
C2716       C  0.59639443  0.64381384  0.05050481     0.78300
C2717       C  0.67113808  0.73407015  0.11309851     0.77300
Zn2718     Zn  0.61637470  0.56868385  0.90383084     1.49700
Zn2719     Zn  0.68466786  0.60315271  0.91931878     1.49400
Zn2720     Zn  0.66153269  0.56118882  0.86627558     1.49100
Zn2721     Zn  0.66146604  0.62421495  0.86684706     1.49500
O2722       O  0.65638756  0.58978782  0.88861561    -1.84000
O2723       O  0.61618472  0.58146149  0.94245838    -0.74600
O2724       O  0.70731785  0.57904158  0.92112763    -0.74400
O2725       O  0.62648669  0.51864934  0.86879977    -0.73900
O2726       O  0.66520513  0.60816675  0.95405931    -0.74600
O2727       O  0.59698864  0.52319799  0.89966165    -0.74200
O2728       O  0.69831717  0.55983083  0.87884556    -0.74800
O2729       O  0.66358072  0.61528370  0.82628865    -0.74200
O2730       O  0.71770649  0.64474976  0.91183766    -0.74900
O2731       O  0.66617266  0.57275674  0.82725964    -0.74300
O2732       O  0.70239296  0.66224836  0.87754385    -0.74800
O2733       O  0.62414160  0.62981540  0.87296304    -0.74700
O2734       O  0.59041739  0.58278298  0.88609923    -0.74500
C2735       C  0.63714901  0.59904027  0.95912825     0.77300
C2736       C  0.71307569  0.56619139  0.90128848     0.77800
C2737       C  0.60322358  0.50692704  0.88392563     0.76700
C2738       C  0.66598818  0.59416458  0.81403381     0.77100
C2739       C  0.72253311  0.66588711  0.89549666     0.78300
C2740       C  0.59698582  0.60950722  0.87921640     0.77300
Zn2741     Zn  0.54828718  0.87946438  0.13931167     1.49700
Zn2742     Zn  0.55391208  0.93441046  0.10342676     1.49400
Zn2743     Zn  0.61104151  0.94178295  0.13651165     1.49100
Zn2744     Zn  0.58678139  0.89994734  0.08384826     1.49500
O2745       O  0.57478922  0.91349838  0.11609092    -1.84000
O2746       O  0.00377249  0.87278102  0.12835265    -0.74600
O2747       O  0.57883086  0.97965560  0.11092571    -0.74400
O2748       O  0.60980234  0.93046867  0.17515707    -0.73900
O2749       O  0.01704130  0.92118111  0.12033121    -0.74600
O2750       O  0.56388576  0.88989957  0.17889724    -0.74200
O2751       O  0.61649278  0.98343579  0.13775425    -0.74800
O2752       O  0.63306275  0.92388860  0.07838099    -0.74200
O2753       O  0.53895986  0.92344483  0.06436571    -0.74900
O2754       O  0.64789181  0.94486829  0.11967473    -0.74300
O2755       O  0.55979421  0.89588671  0.05119670    -0.74800
O2756       O  0.57812838  0.85795039  0.09011397    -0.74700
O2757       O  0.55022276  0.84147146  0.12720814    -0.74500
C2758       C  0.99690716  0.89377773  0.12504856     0.77300
C2759       C  0.60233024  0.99519420  0.12614846     0.77800
C2760       C  0.58911154  0.91043658  0.18971931     0.76700
C2761       C  0.65397533  0.93835005  0.09642095     0.77100
C2762       C  0.54127356  0.90586588  0.04703379     0.78300
C2763       C  0.56399676  0.83728362  0.10731500     0.77300
Zn2764     Zn  0.95493428  0.82304862  0.86347541     1.49700
Zn2765     Zn  0.94145852  0.86901162  0.89755878     1.49400
Zn2766     Zn  0.88958445  0.81866923  0.86169721     1.49100
Zn2767     Zn  0.91224048  0.80158752  0.91602817     1.49500
O2768       O  0.92457133  0.82761366  0.88452667    -1.84000
O2769       O  0.49479782  0.85900947  0.87094007    -0.74600
O2770       O  0.91478115  0.88726762  0.88899149    -0.74400
O2771       O  0.89540357  0.80975482  0.82378235    -0.73900
O2772       O  0.98106352  0.89442296  0.88003776    -0.74600
O2773       O  0.94372430  0.81971912  0.82285444    -0.74200
O2774       O  0.88170283  0.85377744  0.85889238    -0.74800
O2775       O  0.86527645  0.77708300  0.91770789    -0.74200
O2776       O  0.95479278  0.87387804  0.93682907    -0.74900
O2777       O  0.85241573  0.78357940  0.87589614    -0.74300
O2778       O  0.93616798  0.82623507  0.95009462    -0.74800
O2779       O  0.92459206  0.76974541  0.91075141    -0.74700
O2780       O  0.95532817  0.78423147  0.87536891    -0.74500
C2781       C  0.50063107  0.88645171  0.87422383     0.77300
C2782       C  0.89315183  0.87916788  0.87154864     0.77800
C2783       C  0.91866273  0.81359102  0.81075731     0.76700
C2784       C  0.84538005  0.77010622  0.89852925     0.77100
C2785       C  0.95315914  0.85489140  0.95444042     0.78300
C2786       C  0.94133905  0.76524652  0.89422203     0.77300
Zn2787     Zn  0.83754921  0.97037502  0.10316240     1.49700
Zn2788     Zn  0.79705698  0.91115516  0.13588834     1.49400
Zn2789     Zn  0.83811914  0.90828066  0.08768430     1.49100
Zn2790     Zn  0.86801572  0.94572431  0.14384394     1.49500
O2791       O  0.83540231  0.93355440  0.11732593    -1.84000
O2792       O  0.79597641  0.96737841  0.10082966    -0.74600
O2793       O  0.77787209  0.86774573  0.12543260    -0.74400
O2794       O  0.85021304  0.93291640  0.05158893    -0.73900
O2795       O  0.76758649  0.92427976  0.12280175    -0.74600
O2796       O  0.85264500  0.97602626  0.06564792    -0.74200
O2797       O  0.79806761  0.86601057  0.08581293    -0.74800
O2798       O  0.89120025  0.92382159  0.13655618    -0.74200
O2799       O  0.80131028  0.91272392  0.17688225    -0.74900
O2800       O  0.87223217  0.89889411  0.09745512    -0.74300
O2801       O  0.85184220  0.93542526  0.18164854    -0.74800
O2802       O  0.89734015  0.99078422  0.14165686    -0.74700
O2803       O  0.87034875  0.50859179  0.12683581    -0.74500
C2804       C  0.77007172  0.94630543  0.10865118     0.77300
C2805       C  0.77842961  0.85306421  0.10458126     0.77800
C2806       C  0.85645173  0.96042361  0.04736510     0.76700
C2807       C  0.89095149  0.90639597  0.11757017     0.77100
C2808       C  0.82525667  0.92254586  0.19183271     0.78300
C2809       C  0.89558064  0.51233488  0.13644003     0.77300
Zn2810     Zn  0.88142623  0.58674881  0.86176253     1.49700
Zn2811     Zn  0.91424700  0.54912850  0.85367356     1.49400
Zn2812     Zn  0.92235038  0.58496329  0.91098532     1.49100
Zn2813     Zn  0.85889232  0.52481626  0.89289927     1.49500
O2814       O  0.89449533  0.56156230  0.88021500    -1.84000
O2815       O  0.88552037  0.58704276  0.82066685    -0.74600
O2816       O  0.95903410  0.57225642  0.86055572    -0.74400
O2817       O  0.92548669  0.62737590  0.91520675    -0.73900
O2818       O  0.90901095  0.56004192  0.81572647    -0.74600
O2819       O  0.90694092  0.62981315  0.87463569    -0.74200
O2820       O  0.96568354  0.59564378  0.90048243    -0.74800
O2821       O  0.86585888  0.51942464  0.93157905    -0.74200
O2822       O  0.90003833  0.50434548  0.85650970    -0.74900
O2823       O  0.90954074  0.55864928  0.94625634    -0.74300
O2824       O  0.85497779  0.98554967  0.87062085    -0.74800
O2825       O  0.82053681  0.52856118  0.89185110    -0.74700
O2826       O  0.83869743  0.57400256  0.87291586    -0.74500
C2827       C  0.89826431  0.57598432  0.80568711     0.77300
C2828       C  0.97654171  0.58981324  0.87932756     0.77800
C2829       C  0.92116396  0.64253645  0.89667981     0.76700
C2830       C  0.88592910  0.53251588  0.95028451     0.77100
C2831       C  0.87553294  0.98105032  0.86023725     0.78300
C2832       C  0.81740462  0.55107356  0.88474475     0.77300
C2833       C  0.85710362  0.48440931  0.97633542    -0.20100
C2834       C  0.88083288  0.51523835  0.97630309    -0.06700
C2835       C  0.89798692  0.52770416  0.00069737     0.14200
C2836       C  0.89146440  0.00666778  0.02150156    -0.20200
C2837       C  0.86816184  0.97580513  0.02097298    -0.06700
C2838       C  0.85343361  0.96249061  0.99607325     0.14100
C2839       C  0.82885884  0.92945692  0.99403399    -0.23500
H2840       H  0.84333925  0.47431754  0.95817516     0.15400
H2841       H  0.90283970  0.01693167  0.04066931     0.15500
C2842       C  0.92365967  0.56022989  0.00270850    -0.23500
H2843       H  0.81924401  0.92281974  0.97308005     0.05700
H2844       H  0.80981439  0.92513326  0.00781579     0.08900
H2845       H  0.83862703  0.91478740  0.99975376     0.08900
H2846       H  0.91488168  0.57592983  0.99777442     0.08900
H2847       H  0.94209708  0.56372586  0.98850471     0.08900
H2848       H  0.93393144  0.56621676  0.02347196     0.05700
C2849       C  0.88388071  0.94120469  0.83844199    -0.20100
C2850       C  0.87178065  0.95006723  0.86003008    -0.06700
C2851       C  0.86212923  0.93197378  0.88361917     0.14200
C2852       C  0.86759883  0.90750517  0.88609581    -0.20200
C2853       C  0.88191138  0.90032882  0.86547369    -0.06700
C2854       C  0.88872450  0.91621348  0.84078516     0.14100
C2855       C  0.90274878  0.90795062  0.81760787    -0.23500
H2856       H  0.89109426  0.95486437  0.82030811     0.15400
H2857       H  0.86218549  0.89488413  0.90483251     0.15500
C2858       C  0.86449643  0.44945093  0.91791270    -0.23500
H2859       H  0.90704924  0.92298235  0.79994757     0.05700
H2860       H  0.88698532  0.88409576  0.81079050     0.08900
H2861       H  0.92491854  0.91012614  0.82425896     0.08900
H2862       H  0.84159916  0.44753252  0.91596057     0.08900
H2863       H  0.88221983  0.47361600  0.92166522     0.08900
H2864       H  0.86420328  0.43624126  0.93591940     0.05700
C2865       C  0.93022580  0.71855833  0.92016109    -0.20100
C2866       C  0.94266006  0.73630948  0.89676042    -0.06700
C2867       C  0.95273289  0.72422121  0.87562637     0.14200
C2868       C  0.94738472  0.69420372  0.87740084    -0.20200
C2869       C  0.93256387  0.67577242  0.89967868    -0.06700
C2870       C  0.92497029  0.68852181  0.92182023     0.14100
C2871       C  0.90952837  0.66993520  0.94640881    -0.23500
H2872       H  0.92313080  0.72764263  0.93686933     0.15400
H2873       H  0.95358533  0.68443664  0.86056610     0.15500
C2874       C  0.96789400  0.74192113  0.85052091    -0.23500
H2875       H  0.90450787  0.68318850  0.96162263     0.05700
H2876       H  0.92466066  0.66257555  0.95630463     0.08900
H2877       H  0.88753711  0.64954532  0.94025904     0.08900
H2878       H  0.48271370  0.76132461  0.85396056     0.08900
H2879       H  0.95193829  0.74717447  0.83917870     0.08900
H2880       H  0.46615597  0.72595325  0.83537625     0.05700
C2881       C  0.98464929  0.89745365  0.98753180    -0.20100
C2882       C  0.97385251  0.86701133  0.97906326    -0.06700
C2883       C  0.48701805  0.84986218  0.99344859     0.14200
C2884       C  0.50939331  0.86391739  0.01418093    -0.20200
C2885       C  0.51972032  0.89406475  0.02307957    -0.06700
C2886       C  0.00742298  0.91173604  0.00802483     0.14100
C2887       C  0.01777575  0.94437934  0.01588070    -0.23500
H2888       H  0.97534173  0.91034049  0.97786308     0.15400
H2889       H  0.51855975  0.85091898  0.02388682     0.15500
C2890       C  0.47805226  0.81780953  0.98458531    -0.23500
H2891       H  0.00663852  0.95413774  0.00297712     0.05700
H2892       H  0.04293462  0.95852618  0.01347534     0.08900
H2893       H  0.01169023  0.94583289  0.03723062     0.08900
H2894       H  0.48278023  0.81727185  0.96265518     0.08900
H2895       H  0.45335973  0.80231738  0.98832263     0.08900
H2896       H  0.49107995  0.80892747  0.99595450     0.05700
C2897       C  0.95094274  0.88406832  0.09923040    -0.20100
C2898       C  0.96495163  0.88707853  0.12471204    -0.06700
C2899       C  0.95189808  0.89191256  0.14801210     0.14200
C2900       C  0.92626239  0.89581287  0.14512456    -0.20200
C2901       C  0.91368524  0.89562408  0.11932527    -0.06700
C2902       C  0.92544707  0.88824592  0.09613505     0.14100
C2903       C  0.91287001  0.88672759  0.06788473    -0.23500
H2904       H  0.96149529  0.88074651  0.08136629     0.15400
H2905       H  0.91699653  0.90060986  0.16309768     0.15500
C2906       C  0.96605301  0.89453164  0.17571813    -0.23500
H2907       H  0.92546996  0.88140556  0.05231954     0.05700
H2908       H  0.91491735  0.90900095  0.06275857     0.08900
H2909       H  0.88849418  0.86850018  0.06661569     0.08900
H2910       H  0.48947189  0.91372772  0.18111670     0.08900
H2911       H  0.96639914  0.87320025  0.18013710     0.08900
H2912       H  0.95298846  0.89829319  0.19190880     0.05700
C2913       C  0.68934497  0.92034518  0.08340485    -0.20100
C2914       C  0.68557191  0.94471354  0.09215687    -0.06700
C2915       C  0.71126219  0.97171135  0.10237226     0.14200
C2916       C  0.73935268  0.97242198  0.10608035    -0.20200
C2917       C  0.74190928  0.94654100  0.10049627    -0.06700
C2918       C  0.71707910  0.92069917  0.08784358     0.14100
C2919       C  0.71953510  0.89325311  0.07926194    -0.23500
H2920       H  0.66980660  0.89990997  0.07519481     0.15400
H2921       H  0.75880452  0.99254729  0.11484687     0.15500
C2922       C  0.70910403  0.99965471  0.10962157    -0.23500
H2923       H  0.69847668  0.87588663  0.06842008     0.05700
H2924       H  0.72293908  0.88220580  0.09728355     0.08900
H2925       H  0.73909722  0.90035071  0.06535162     0.08900
H2926       H  0.69375173  0.99521229  0.12706869     0.08900
H2927       H  0.70021875  0.00642159  0.09184380     0.08900
H2928       H  0.73183508  0.01922037  0.11546701     0.05700
C2929       C  0.77633875  0.69302270  0.91270717    -0.20100
C2930       C  0.75304620  0.69428239  0.89750655    -0.06700
C2931       C  0.76012282  0.72185868  0.88456443     0.14200
C2932       C  0.79004006  0.74681196  0.88691635    -0.20200
C2933       C  0.81340319  0.74497023  0.90129843    -0.06700
C2934       C  0.80635473  0.71757806  0.91433708     0.14100
C2935       C  0.83058927  0.71321650  0.92857815    -0.23500
H2936       H  0.77144073  0.67218449  0.92277591     0.15400
H2937       H  0.79551875  0.76775910  0.87666385     0.15500
C2938       C  0.73668316  0.72539513  0.86810414    -0.23500
H2939       H  0.82116330  0.68978952  0.93647488     0.05700
H2940       H  0.84039530  0.72931769  0.94612405     0.08900
H2941       H  0.84902702  0.71710886  0.91418944     0.08900
H2942       H  0.71672055  0.72047963  0.88087805     0.08900
H2943       H  0.72914019  0.70968669  0.85019271     0.08900
H2944       H  0.74611887  0.74889645  0.86038236     0.05700
C2945       C  0.57038696  0.95902467  0.85507998    -0.20100
C2946       C  0.58225347  0.97091473  0.88113891    -0.06700
C2947       C  0.57040882  0.95215510  0.90399987     0.14200
C2948       C  0.54566078  0.92257847  0.90038574    -0.20200
C2949       C  0.53206637  0.91181695  0.87470026    -0.06700
C2950       C  0.54483125  0.92982010  0.85168401     0.14100
C2951       C  0.03494078  0.91839458  0.82362961    -0.23500
H2952       H  0.57962659  0.97346809  0.83757258     0.15400
H2953       H  0.53527668  0.90863740  0.91800074     0.15500
C2954       C  0.58329369  0.96331153  0.93222956    -0.23500
H2955       H  0.04877169  0.93442335  0.80751973     0.05700
H2956       H  0.01110472  0.91410710  0.82163065     0.08900
H2957       H  0.03498052  0.89665237  0.82029878     0.08900
H2958       H  0.57941334  0.98222797  0.93859640     0.08900
H2959       H  0.60822841  0.97130388  0.93263374     0.08900
H2960       H  0.57221646  0.94499829  0.94738856     0.05700
C2961       C  0.73464486  0.53193796  0.89455611    -0.20100
C2962       C  0.73912989  0.56061947  0.90275204    -0.06700
C2963       C  0.76917544  0.58520925  0.90649465     0.14200
C2964       C  0.79397896  0.58076747  0.90124030    -0.20200
C2965       C  0.78965986  0.55247872  0.89201912    -0.06700
C2966       C  0.75960919  0.52744734  0.88937189     0.14100
C2967       C  0.75369199  0.49659319  0.87969833    -0.23500
H2968       H  0.71148004  0.51331503  0.89115626     0.15400
H2969       H  0.81706010  0.59987225  0.90364986     0.15500
C2970       C  0.77524703  0.61674767  0.91402528    -0.23500
H2971       H  0.72878807  0.48008222  0.87762528     0.05700
H2972       H  0.76356812  0.48726853  0.89448898     0.08900
H2973       H  0.76419868  0.49855820  0.85954722     0.08900
H2974       H  0.76533520  0.61644466  0.93414108     0.08900
H2975       H  0.76481920  0.62470940  0.89844268     0.08900
H2976       H  0.80015059  0.63348102  0.91526397     0.05700
C2977       C  0.52796050  0.61011131  0.90557580    -0.20100
C2978       C  0.51128359  0.60535005  0.88131843    -0.06700
C2979       C  0.52667614  0.61059352  0.85615674     0.14200
C2980       C  0.55686162  0.61584745  0.85595746    -0.20200
C2981       C  0.57178696  0.61624971  0.88017296    -0.06700
C2982       C  0.55797339  0.61528052  0.90529113     0.14100
C2983       C  0.57412615  0.61767106  0.93190189    -0.23500
H2984       H  0.51673170  0.60726621  0.92487549     0.15400
H2985       H  0.56785535  0.61714307  0.83679262     0.15500
C2986       C  0.51156260  0.61032351  0.82944066    -0.23500
H2987       H  0.56073105  0.61810287  0.94955109     0.05700
H2988       H  0.59672455  0.63890222  0.93262661     0.08900
H2989       H  0.57735875  0.59768922  0.93406856     0.08900
H2990       H  0.99797762  0.61596869  0.82387815     0.08900
H2991       H  0.98988243  0.57671513  0.82148027     0.08900
H2992       H  0.52814124  0.61806062  0.81256867     0.05700
C2993       C  0.93193813  0.55535908  0.11000175    -0.20100
C2994       C  0.92271553  0.54267207  0.13572585    -0.06700
C2995       C  0.94193735  0.55659352  0.15860850     0.14200
C2996       C  0.97070569  0.58250491  0.15494278    -0.20200
C2997       C  0.98081622  0.59367101  0.12882107    -0.06700
C2998       C  0.96099517  0.58040380  0.10614608     0.14100
C2999       C  0.96996212  0.59154726  0.07758375    -0.23500
H3000       H  0.91712964  0.54439198  0.09243653     0.15400
H3001       H  0.98613159  0.59284544  0.17224209     0.15500
C3002       C  0.92859737  0.04530243  0.18382034    -0.23500
H3003       H  0.96987335  0.57322445  0.06485573     0.05700
H3004       H  0.99291790  0.61211174  0.07649356     0.08900
H3005       H  0.95316185  0.59746843  0.06889886     0.08900
H3006       H  0.92490374  0.02184832  0.18555334     0.08900
H3007       H  0.90665901  0.04495819  0.18741608     0.08900
H3008       H  0.94522197  0.05965076  0.20000674     0.05700
C3009       C  0.70677658  0.77895552  0.08550227    -0.20100
C3010       C  0.70154661  0.76247838  0.10981450    -0.06700
C3011       C  0.72468016  0.77463647  0.13041788     0.14200
C3012       C  0.75088401  0.80323285  0.12679111    -0.20200
C3013       C  0.75493888  0.82030499  0.10330442    -0.06700
C3014       C  0.73296999  0.80767836  0.08210937     0.14100
C3015       C  0.73614234  0.82520795  0.05663912    -0.23500
H3016       H  0.68971333  0.76992792  0.06928037     0.15400
H3017       H  0.76781549  0.81315435  0.14309754     0.15500
C3018       C  0.72179155  0.75858453  0.15679201    -0.23500
H3019       H  0.71653403  0.81232717  0.04231797     0.05700
H3020       H  0.75743812  0.82992004  0.04611206     0.08900
H3021       H  0.73713907  0.84709989  0.06186192     0.08900
H3022       H  0.71968732  0.73597707  0.15267330     0.08900
H3023       H  0.70151037  0.75584340  0.16794342     0.08900
H3024       H  0.74214725  0.77160496  0.17031626     0.05700
C3025       C  0.58775184  0.77833285  0.08927512    -0.20100
C3026       C  0.56506958  0.75248355  0.10206287    -0.06700
C3027       C  0.54057995  0.75390175  0.11473861     0.14200
C3028       C  0.54049516  0.78165452  0.11552818    -0.20200
C3029       C  0.56417696  0.80806989  0.10406118    -0.06700
C3030       C  0.58793825  0.80613607  0.09026265     0.14100
C3031       C  0.61469015  0.83338148  0.07773637    -0.23500
H3032       H  0.60656469  0.77725877  0.07974647     0.15400
H3033       H  0.52197974  0.78281038  0.12555290     0.15500
C3034       C  0.51424464  0.72629534  0.12720847    -0.23500
H3035       H  0.63184146  0.82776518  0.06953135     0.05700
H3036       H  0.62655922  0.85171464  0.09333791     0.08900
H3037       H  0.60664990  0.84175001  0.06051924     0.08900
H3038       H  0.52211122  0.71924567  0.14544396     0.08900
H3039       H  0.50403553  0.70724487  0.11207510     0.08900
H3040       H  0.99690446  0.73056714  0.12679949     0.05700
C3041       C  0.62067010  0.57275112  0.15586418    -0.20100
C3042       C  0.62493452  0.58972163  0.13244134    -0.06700
C3043       C  0.62836101  0.57841390  0.10711637     0.14200
C3044       C  0.62410070  0.54888187  0.10530991    -0.20200
C3045       C  0.61699424  0.53073783  0.12833415    -0.06700
C3046       C  0.61684416  0.54331331  0.15414533     0.14100
C3047       C  0.59721966  0.01823281  0.18027550    -0.23500
H3048       H  0.61775913  0.58149079  0.17515487     0.15400
H3049       H  0.62481755  0.53936025  0.08566498     0.15500
C3050       C  0.63476676  0.59689452  0.08172021    -0.23500
H3051       H  0.60990858  0.53793344  0.19780481     0.05700
H3052       H  0.61348898  0.01027668  0.18593553     0.08900
H3053       H  0.57447023  0.99819224  0.17537502     0.08900
H3054       H  0.65631762  0.61896684  0.08454206     0.08900
H3055       H  0.61567023  0.60127463  0.07732623     0.08900
H3056       H  0.63732288  0.58490427  0.06375412     0.05700
C3057       C  0.59825129  0.59245880  0.99354746    -0.20100
C3058       C  0.62801683  0.61041856  0.98356311    -0.06700
C3059       C  0.64628524  0.64031629  0.99453257     0.14200
C3060       C  0.63465931  0.65088233  0.01536822    -0.20200
C3061       C  0.60519907  0.63261931  0.02578882    -0.06700
C3062       C  0.58666592  0.60296768  0.01442092     0.14100
C3063       C  0.55429752  0.58239575  0.02353174    -0.23500
H3064       H  0.58375161  0.56990882  0.98480929     0.15400
H3065       H  0.64909717  0.67346641  0.02406128     0.15500
C3066       C  0.67770768  0.66175908  0.98391380    -0.23500
H3067       H  0.54234821  0.56139322  0.01068061     0.05700
H3068       H  0.54100397  0.59452184  0.02215354     0.08900
H3069       H  0.55430007  0.57508514  0.04469287     0.08900
H3070       H  0.67618856  0.66518571  0.96182761     0.08900
H3071       H  0.69316764  0.65231214  0.98754368     0.08900
H3072       H  0.68817363  0.68447940  0.99417383     0.05700
C3073       C  0.88825740  0.59154438  0.73136872    -0.20100
C3074       C  0.91572196  0.59547207  0.72031154    -0.06700
C3075       C  0.93785399  0.59492076  0.73803643     0.14200
C3076       C  0.93118313  0.58877044  0.76559527    -0.20200
C3077       C  0.90324126  0.58342254  0.77638475    -0.06700
C3078       C  0.88176421  0.58561479  0.75916724     0.14100
C3079       C  0.85155487  0.58052698  0.76964253    -0.23500
H3080       H  0.87126923  0.59209479  0.71802957     0.15400
H3081       H  0.94811440  0.58810819  0.77896065     0.15500
C3082       C  0.96888127  0.60125480  0.72846801    -0.23500
H3083       H  0.83694490  0.58163022  0.75313039     0.05700
H3084       H  0.85547492  0.59836440  0.78502124     0.08900
H3085       H  0.83887398  0.55769989  0.77892487     0.08900
H3086       H  0.98036365  0.62329625  0.71773986     0.08900
H3087       H  0.96649193  0.58257134  0.71482090     0.08900
H3088       H  0.98408506  0.60282494  0.74567374     0.05700
C3089       C  0.98440464  0.63903020  0.50624092    -0.20100
C3090       C  0.97097475  0.60980755  0.51747697    -0.06700
C3091       C  0.97965682  0.58895552  0.50723126     0.14200
C3092       C  0.49898176  0.59862373  0.48604881    -0.20200
C3093       C  0.51529509  0.62943730  0.47825463    -0.06700
C3094       C  0.50785702  0.65028240  0.49083180     0.14100
C3095       C  0.52269110  0.68332506  0.48292586    -0.23500
H3096       H  0.97795947  0.65517430  0.51404152     0.15400
H3097       H  0.50387076  0.58227149  0.47617243     0.15500
C3098       C  0.96651920  0.55748670  0.51866706    -0.23500
H3099       H  0.51311448  0.69578235  0.49418944     0.05700
H3100       H  0.51881663  0.68499752  0.46091748     0.08900
H3101       H  0.54761816  0.69498816  0.48766379     0.08900
H3102       H  0.94130108  0.54481442  0.51541855     0.08900
H3103       H  0.97186059  0.55904854  0.54075839     0.08900
H3104       H  0.97610129  0.54428033  0.50872029     0.05700
C3105       C  0.55870097  0.66467157  0.26608742    -0.20100
C3106       C  0.58478260  0.67795313  0.28310322    -0.06700
C3107       C  0.61416650  0.69236459  0.27091750     0.14200
C3108       C  0.61640019  0.69259094  0.24240497    -0.20200
C3109       C  0.59028972  0.67902745  0.22547046    -0.06700
C3110       C  0.56093578  0.66472891  0.23762956     0.14100
C3111       C  0.53162486  0.64816740  0.22100826    -0.23500
H3112       H  0.53625141  0.65332943  0.27514726     0.15400
H3113       H  0.63879445  0.70359899  0.23322892     0.15500
C3114       C  0.64349830  0.70816332  0.28753124    -0.23500
H3115       H  0.51120266  0.63633084  0.23402571     0.05700
H3116       H  0.53231852  0.63066300  0.20767295     0.08900
H3117       H  0.52836201  0.66453120  0.20854405     0.08900
H3118       H  0.64653033  0.69128502  0.29941590     0.08900
H3119       H  0.64307248  0.72542958  0.30138007     0.08900
H3120       H  0.66390725  0.72013327  0.27451821     0.05700
C3121       C  0.68234041  0.57748020  0.77279121    -0.20100
C3122       C  0.66866299  0.59364357  0.78384709    -0.06700
C3123       C  0.65638873  0.60672494  0.76580938     0.14200
C3124       C  0.65718606  0.60228950  0.73759839    -0.20200
C3125       C  0.67031775  0.58562528  0.72686595    -0.06700
C3126       C  0.68330253  0.57334119  0.74464060     0.14100
C3127       C  0.69688626  0.55464314  0.73400787    -0.23500
H3128       H  0.69197199  0.56750222  0.78629065     0.15400
H3129       H  0.64718954  0.61162510  0.72374910     0.15500
C3130       C  0.64145603  0.62440847  0.77590032    -0.23500
H3131       H  0.70522243  0.54589734  0.75072900     0.05700
H3132       H  0.71657469  0.56879713  0.72083670     0.08900
H3133       H  0.67928641  0.53478666  0.72205168     0.08900
H3134       H  0.65848577  0.64509283  0.78730723     0.08900
H3135       H  0.62204513  0.60991415  0.78923376     0.08900
H3136       H  0.63230779  0.63202194  0.75891156     0.05700
C3137       C  0.77984287  0.58561980  0.60086639    -0.20100
C3138       C  0.75709726  0.55732356  0.61041625    -0.06700
C3139       C  0.76332700  0.53291687  0.61160122     0.14200
C3140       C  0.79289602  0.53823701  0.60521463    -0.20200
C3141       C  0.81606847  0.56719941  0.59744547    -0.06700
C3142       C  0.80911049  0.59084703  0.59444978     0.14100
C3143       C  0.83298809  0.62205154  0.58530171    -0.23500
H3144       H  0.77491113  0.60413229  0.59900606     0.15400
H3145       H  0.79853287  0.52032481  0.60805523     0.15500
C3146       C  0.73967302  0.50192176  0.62113424    -0.23500
H3147       H  0.82350697  0.63767754  0.58335503     0.05700
H3148       H  0.84169750  0.62009097  0.56517338     0.08900
H3149       H  0.85236345  0.63251479  0.60016147     0.08900
H3150       H  0.71969595  0.49189410  0.60689951     0.08900
H3151       H  0.73207739  0.50388870  0.64179386     0.08900
H3152       H  0.74888815  0.48600218  0.62202869     0.05700
C3153       C  0.57261354  0.61086674  0.59681850    -0.20100
C3154       C  0.58524064  0.60667206  0.62086324    -0.06700
C3155       C  0.57587986  0.61275875  0.64626030     0.14200
C3156       C  0.55167286  0.61900475  0.64688796    -0.20200
C3157       C  0.53710792  0.62008509  0.62297981    -0.06700
C3158       C  0.54848014  0.61734330  0.59758232     0.14100
C3159       C  0.03900487  0.62325050  0.57043916    -0.23500
H3160       H  0.58016450  0.60701305  0.57735432     0.15400
H3161       H  0.54287976  0.62138261  0.66626350     0.15500
C3162       C  0.59085935  0.61251181  0.67292386    -0.23500
H3163       H  0.54516690  0.61600365  0.55333290     0.05700
H3164       H  0.04207073  0.64657158  0.57078246     0.08900
H3165       H  0.01431927  0.60635429  0.56763694     0.08900
H3166       H  0.61606939  0.62745096  0.67175714     0.08900
H3167       H  0.58523225  0.58899355  0.67801287     0.08900
H3168       H  0.58277851  0.62111699  0.68999618     0.05700
C3169       C  0.64730727  0.49788205  0.52025666    -0.20100
C3170       C  0.63279010  0.51473718  0.52680554    -0.06700
C3171       C  0.60689562  0.50962175  0.51124279     0.14200
C3172       C  0.60285615  0.99317769  0.48573970    -0.20200
C3173       C  0.61650678  0.97529382  0.47927751    -0.06700
C3174       C  0.64228660  0.97986476  0.49503234     0.14100
C3175       C  0.65915237  0.96269573  0.48943901    -0.23500
H3176       H  0.66698187  0.50148108  0.53237156     0.15400
H3177       H  0.58340793  0.99038752  0.47377930     0.15500
C3178       C  0.58980630  0.52629804  0.51770199    -0.23500
H3179       H  0.67865289  0.96935514  0.50386942     0.05700
H3180       H  0.66865876  0.96761085  0.46866402     0.08900
H3181       H  0.64341102  0.93785499  0.49159310     0.08900
H3182       H  0.60520174  0.55117996  0.51541310     0.08900
H3183       H  0.58143050  0.52157988  0.53886230     0.08900
H3184       H  0.56971327  0.51915025  0.50388548     0.05700
C3185       C  0.61758882  0.54826916  0.35477630    -0.20100
C3186       C  0.61693526  0.53358291  0.37890632    -0.06700
C3187       C  0.61616806  0.54670251  0.40418139     0.14200
C3188       C  0.61329836  0.57279292  0.40467001    -0.20200
C3189       C  0.61087987  0.58585873  0.38053908    -0.06700
C3190       C  0.61442298  0.57438515  0.35525349     0.14100
C3191       C  0.61246926  0.58801152  0.32873567    -0.23500
H3192       H  0.61814946  0.53797764  0.33552876     0.15400
H3193       H  0.61111591  0.58201593  0.42396517     0.15500
C3194       C  0.61693868  0.53244021  0.43071558    -0.23500
H3195       H  0.61460173  0.57543522  0.31101811     0.05700
H3196       H  0.63129529  0.61200473  0.32779575     0.08900
H3197       H  0.59006402  0.58723841  0.32689979     0.08900
H3198       H  0.63757746  0.52982510  0.43182327     0.08900
H3199       H  0.59610021  0.50984006  0.43238020     0.08900
H3200       H  0.61761814  0.54651692  0.44848204     0.05700
C3201       C  0.54327691  0.76312504  0.37802962    -0.20100
C3202       C  0.55810019  0.75553621  0.39820962    -0.06700
C3203       C  0.57404520  0.77717697  0.41958648     0.14200
C3204       C  0.57695835  0.80623653  0.41854069    -0.20200
C3205       C  0.56447835  0.81470590  0.39703210    -0.06700
C3206       C  0.54601540  0.79214374  0.37711301     0.14100
C3207       C  0.52911360  0.79797861  0.35452441    -0.23500
H3208       H  0.53021987  0.74654265  0.36214989     0.15400
H3209       H  0.59028939  0.82294366  0.43425304     0.15500
C3210       C  0.58868640  0.77061767  0.44359309    -0.23500
H3211       H  0.51397486  0.77692089  0.34255287     0.05700
H3212       H  0.54557069  0.81464726  0.34009126     0.08900
H3213       H  0.51438560  0.80649489  0.36317902     0.08900
H3214       H  0.60799188  0.76754813  0.43682556     0.08900
H3215       H  0.57132785  0.74996402  0.45406787     0.08900
H3216       H  0.59827482  0.78961337  0.45881149     0.05700
C3217       C  0.62319107  0.93453824  0.26205403    -0.20100
C3218       C  0.59750929  0.91635843  0.27781595    -0.06700
C3219       C  0.56973704  0.89508782  0.26424648     0.14200
C3220       C  0.56850792  0.89319223  0.23578480    -0.20200
C3221       C  0.59379411  0.91199077  0.21992299    -0.06700
C3222       C  0.62185932  0.93275292  0.23345031     0.14100
C3223       C  0.65070844  0.95331346  0.21833053    -0.23500
H3224       H  0.64452493  0.95053694  0.27220236     0.15400
H3225       H  0.54704772  0.87725224  0.22581049     0.15500
C3226       C  0.54058407  0.87472445  0.27912856    -0.23500
H3227       H  0.67050497  0.96667729  0.23235756     0.05700
H3228       H  0.64744894  0.96995823  0.20627612     0.08900
H3229       H  0.65681366  0.93946865  0.20482404     0.08900
H3230       H  0.53399588  0.88875339  0.29187001     0.08900
H3231       H  0.54373559  0.85846653  0.29187640     0.08900
H3232       H  0.52105909  0.86087381  0.26498817     0.05700
C3233       C  0.92854155  0.84034799  0.73835231    -0.20100
C3234       C  0.90172549  0.81701346  0.72582433    -0.06700
C3235       C  0.88241456  0.79077101  0.74087060     0.14200
C3236       C  0.88976825  0.78932336  0.76823802    -0.20200
C3237       C  0.91616278  0.81303281  0.78083026    -0.06700
C3238       C  0.93603682  0.83866421  0.76556774     0.14100
C3239       C  0.96425970  0.86507929  0.77828161    -0.23500
H3240       H  0.94372541  0.86022486  0.72680103     0.15400
H3241       H  0.87430199  0.76996694  0.78021004     0.15500
C3242       C  0.85336476  0.76485752  0.72877812    -0.23500
H3243       H  0.97678187  0.88359476  0.76358371     0.05700
H3244       H  0.98011979  0.85725205  0.78558283     0.08900
H3245       H  0.95772634  0.87476995  0.79563381     0.08900
H3246       H  0.85889060  0.75359418  0.71204679     0.08900
H3247       H  0.83842907  0.77356919  0.72093222     0.08900
H3248       H  0.84023965  0.74720543  0.74402487     0.05700
C3249       C  0.73612933  0.69607515  0.62862010    -0.20100
C3250       C  0.73435987  0.67775337  0.60619194    -0.06700
C3251       C  0.75610130  0.69061124  0.58539825     0.14200
C3252       C  0.77998895  0.72100159  0.58831877    -0.20200
C3253       C  0.78273624  0.73848626  0.61165739    -0.06700
C3254       C  0.76020745  0.72615942  0.63171294     0.14100
C3255       C  0.76236828  0.74430727  0.65693401    -0.23500
H3256       H  0.71946351  0.68618714  0.64459811     0.15400
H3257       H  0.79770900  0.73052303  0.57318260     0.15500
C3258       C  0.75555480  0.67177761  0.56126818    -0.23500
H3259       H  0.74278933  0.73127672  0.67059826     0.05700
H3260       H  0.76237846  0.76549429  0.65117172     0.08900
H3261       H  0.78382966  0.75039622  0.66839313     0.08900
H3262       H  0.73378013  0.66349093  0.54961419     0.08900
H3263       H  0.75753611  0.65197884  0.56822644     0.08900
H3264       H  0.77477363  0.68518767  0.54736603     0.05700
C3265       C  0.52339974  0.91656088  0.60384424    -0.20100
C3266       C  0.50595590  0.90711456  0.62759868    -0.06700
C3267       C  0.52073436  0.92005388  0.65299314     0.14200
C3268       C  0.55146837  0.94343899  0.65356158    -0.20200
C3269       C  0.56814276  0.95408402  0.62969195    -0.06700
C3270       C  0.55419752  0.94001582  0.60454685     0.14100
C3271       C  0.57426948  0.45905865  0.58188135    -0.23500
H3272       H  0.51247585  0.90666936  0.58440203     0.15400
H3273       H  0.56229856  0.95441257  0.67275521     0.15500
C3274       C  0.50459484  0.90966108  0.67974048    -0.23500
H3275       H  0.56008487  0.44730243  0.56353393     0.05700
H3276       H  0.59521185  0.45696822  0.58124977     0.08900
H3277       H  0.58084244  0.48349730  0.58091241     0.08900
H3278       H  0.49433763  0.88458336  0.68138657     0.08900
H3279       H  0.98191213  0.93209902  0.67646100     0.08900
H3280       H  0.52059922  0.92037989  0.69731367     0.05700
C3281       C  0.93950915  0.71830581  0.58602946    -0.20100
C3282       C  0.94273496  0.70824060  0.61174666    -0.06700
C3283       C  0.94246408  0.72441967  0.63511681     0.14200
C3284       C  0.93713919  0.74897451  0.63237327    -0.20200
C3285       C  0.93099691  0.75749535  0.60692167    -0.06700
C3286       C  0.93322180  0.74248929  0.58323467     0.14100
C3287       C  0.92721786  0.74958617  0.55494208    -0.23500
H3288       H  0.93970253  0.70582254  0.56805224     0.15400
H3289       H  0.93628410  0.76077541  0.65058291     0.15500
C3290       C  0.48463209  0.73453479  0.61156085    -0.23500
H3291       H  0.94801204  0.75692855  0.54257915     0.05700
H3292       H  0.92097778  0.76765632  0.55425786     0.08900
H3293       H  0.90802471  0.72877572  0.54538528     0.08900
H3294       H  0.49133679  0.72431790  0.59478420     0.08900
H3295       H  0.48704834  0.72539528  0.63127831     0.08900
H3296       H  0.50078354  0.75949001  0.61182499     0.05700
C3297       C  0.88926633  0.97407638  0.64882278    -0.20100
C3298       C  0.88788832  0.98352755  0.62224397    -0.16300
C3299       C  0.87424790  0.96091695  0.60139101     0.14200
C3300       C  0.86522795  0.93039326  0.60725018    -0.20200
C3301       C  0.86955568  0.92176790  0.63325437    -0.06700
C3302       C  0.88007526  0.94363476  0.65459749     0.14100
C3303       C  0.88203988  0.93560554  0.68366413    -0.23500
H3304       H  0.89818919  0.99070567  0.66538806     0.15400
H3305       H  0.85698621  0.91357560  0.59083557     0.15500
C3306       C  0.87054831  0.96869832  0.57264505    -0.23500
H3307       H  0.86871407  0.94278227  0.69665604     0.05700
H3308       H  0.90630806  0.94768785  0.69076499     0.08900
H3309       H  0.87243157  0.91077727  0.68640197     0.08900
H3310       H  0.89322540  0.98517342  0.56439336     0.08900
H3311       H  0.85510964  0.97852760  0.57214322     0.08900
H3312       H  0.86032773  0.94826511  0.55906033     0.05700
C3313       C  0.84146589  0.93416953  0.26765542    -0.20100
C3314       C  0.82036509  0.90540599  0.27760152    -0.06700
C3315       C  0.79896995  0.88294430  0.25939361     0.14200
C3316       C  0.80022495  0.88956554  0.23152835    -0.20200
C3317       C  0.82241288  0.91797054  0.22155001    -0.06700
C3318       C  0.84280262  0.94078355  0.24002374     0.14100
C3319       C  0.86569629  0.97241312  0.23094033    -0.23500
H3320       H  0.85732528  0.95172327  0.28171154     0.15400
H3321       H  0.78456215  0.87208974  0.21732181     0.15500
C3322       C  0.77582978  0.85173469  0.26894889    -0.23500
H3323       H  0.87792032  0.98793159  0.24845403     0.05700
H3324       H  0.85374087  0.98232582  0.21940453     0.08900
H3325       H  0.88328648  0.97168606  0.21803674     0.08900
H3326       H  0.76000961  0.85355472  0.28342947     0.08900
H3327       H  0.78775479  0.84090818  0.27907999     0.08900
H3328       H  0.76182343  0.83662384  0.25179415     0.05700
C3329       C  0.88665016  0.87578946  0.47816965    -0.20100
C3330       C  0.86798052  0.88939230  0.47849124    -0.06700
C3331       C  0.85752986  0.89388959  0.50363890     0.14200
C3332       C  0.86477630  0.88344832  0.52743954    -0.20200
C3333       C  0.88199964  0.86824860  0.52696476    -0.06700
C3334       C  0.89374864  0.86515400  0.50194938     0.14100
C3335       C  0.91230784  0.84927336  0.49985968    -0.23500
H3336       H  0.89485943  0.87240276  0.45887766     0.15400
H3337       H  0.85608727  0.88646960  0.54660598     0.15500
C3338       C  0.83726076  0.90795305  0.50535713    -0.23500
H3339       H  0.91817751  0.84741017  0.47851689     0.05700
H3340       H  0.89902972  0.82581970  0.50779551     0.08900
H3341       H  0.93405094  0.86223924  0.51166121     0.08900
H3342       H  0.81632116  0.89458861  0.49259473     0.08900
H3343       H  0.84983899  0.93180181  0.49823970     0.08900
H3344       H  0.82985595  0.90828342  0.52646873     0.05700
C3345       C  0.95171617  0.56744487  0.39942312    -0.20100
C3346       C  0.96267713  0.57767340  0.37327780    -0.06700
C3347       C  0.94726813  0.55909730  0.35056310     0.14200
C3348       C  0.92247096  0.52976756  0.35457208    -0.20200
C3349       C  0.91326773  0.51816807  0.38086350    -0.06700
C3350       C  0.92727366  0.53786565  0.40361261     0.14100
C3351       C  0.91837630  0.52739399  0.43234298    -0.23500
H3352       H  0.96410877  0.58180856  0.41684661     0.15400
H3353       H  0.91133468  0.51514946  0.33697461     0.15500
C3354       C  0.95823179  0.56956828  0.32224449    -0.23500
H3355       H  0.93254982  0.54559419  0.44748903     0.05700
H3356       H  0.92158744  0.50756637  0.43634603     0.08900
H3357       H  0.89409115  0.52096245  0.43549616     0.08900
H3358       H  0.47459146  0.57872228  0.32007294     0.08900
H3359       H  0.95773581  0.59090366  0.31825890     0.08900
H3360       H  0.94358519  0.55224821  0.30664716     0.05700
C3361       C  0.73565823  0.76699248  0.39604759    -0.20100
C3362       C  0.73831367  0.79586432  0.39870175    -0.06700
C3363       C  0.71341591  0.79832624  0.40910827     0.14200
C3364       C  0.68565063  0.77174878  0.41417419    -0.20200
C3365       C  0.68197604  0.74288768  0.40856332    -0.06700
C3366       C  0.70760718  0.74039012  0.40051026     0.14100
C3367       C  0.70535115  0.70972903  0.39638517    -0.23500
H3368       H  0.75509964  0.76520120  0.38905551     0.15400
H3369       H  0.66601267  0.77357964  0.42052667     0.15500
C3370       C  0.71585719  0.82886612  0.41482934    -0.23500
H3371       H  0.72794597  0.71202118  0.39163701     0.05700
H3372       H  0.68946407  0.69703429  0.37924786     0.08900
H3373       H  0.69695846  0.69630845  0.41520457     0.08900
H3374       H  0.71899029  0.84136016  0.39566680     0.08900
H3375       H  0.73552791  0.84255969  0.42886904     0.08900
H3376       H  0.69487138  0.82638792  0.42447775     0.05700
C3377       C  0.92959892  0.87301526  0.39527876    -0.20100
C3378       C  0.91834449  0.87356876  0.36922593    -0.06700
C3379       C  0.93646094  0.87758504  0.34631947     0.14200
C3380       C  0.96602465  0.88203312  0.35013326    -0.20200
C3381       C  0.97824249  0.88423410  0.37634006    -0.06700
C3382       C  0.95972018  0.87906694  0.39921274     0.14100
C3383       C  0.97173190  0.88043284  0.42766303    -0.23500
H3384       H  0.91558950  0.87029265  0.41280406     0.15400
H3385       H  0.98043466  0.88592711  0.33266444     0.15500
C3386       C  0.92495060  0.87792953  0.31802769    -0.23500
H3387       H  0.95377389  0.87502233  0.44298761     0.05700
H3388       H  0.99088824  0.90366432  0.43247339     0.08900
H3389       H  0.97985755  0.86371967  0.42957604     0.08900
H3390       H  0.92075985  0.89740094  0.31591719     0.08900
H3391       H  0.90330511  0.85631173  0.31384537     0.08900
H3392       H  0.94177360  0.88028324  0.30242517     0.05700
C3393       C  0.75040802  0.94486202  0.37051341    -0.20100
C3394       C  0.75909797  0.93775302  0.39538402    -0.06700
C3395       C  0.74254818  0.93590262  0.41892027     0.14200
C3396       C  0.71644991  0.93916135  0.41652905    -0.20200
C3397       C  0.70630285  0.94378838  0.39115013    -0.06700
C3398       C  0.72413692  0.94756059  0.36792491     0.14100
C3399       C  0.71481312  0.45752755  0.34354288    -0.23500
H3400       H  0.76339006  0.94652875  0.35249411     0.15400
H3401       H  0.70309830  0.93673536  0.43446042     0.15500
C3402       C  0.75105493  0.92858662  0.44611467    -0.23500
H3403       H  0.73139768  0.46006218  0.32762835     0.05700
H3404       H  0.71431353  0.47922172  0.34470165     0.08900
H3405       H  0.69199798  0.43860060  0.33698882     0.08900
H3406       H  0.77450547  0.94660844  0.45220039     0.08900
H3407       H  0.75021299  0.90622579  0.44492001     0.08900
H3408       H  0.73515206  0.92732658  0.46221450     0.05700
loop_ 
_geom_bond_atom_site_label_1 
_geom_bond_atom_site_label_2 
_geom_bond_distance 
_geom_bond_site_symmetry_2 
_ccdc_geom_bond_type 
Zn1           O5   1.923       .  S
Zn1           O6   1.961       .  S
Zn1          O10   2.015       .  S
Zn1          O17   2.024       .  S
Zn2           O5   1.972       .  S
Zn2           O7   2.087       .  S
Zn2           O9   2.067       .  S
Zn2          O13   2.044       .  S
Zn3           O5   1.937       .  S
Zn3           O8   2.016       .  S
Zn3          O11   1.976       .  S
Zn3          O14   1.996       .  S
Zn4           O5   1.923       .  S
Zn4          O12   2.008       .  S
Zn4          O15   1.999       .  S
Zn4          O16   1.991       .  S
O6           C18   1.269       .  A
O7           C19   1.284       .  A
O8           C20   1.272       .  A
O9           C18   1.281       .  A
O10          C20   1.273       .  A
O11          C19   1.269       .  A
O12          C21   1.274       .  A
O13          C22   1.276       .  A
O14          C21   1.272       .  A
O15          C22   1.272       .  A
O16          C23   1.271       .  A
O17          C23   1.273       .  A
C18         C838   1.484       .  S
C19         C774   1.492       .  S
C20         C806   1.477       .  S
C21         C822   1.468       .  S
C22        C1645   1.487       .  S
C23         C758   1.478       .  S
Zn24         O28   1.938       .  S
Zn24         O29   2.024       .  S
Zn24         O33   2.009       .  S
Zn24         O40   1.990       .  S
Zn25         O28   1.940       .  S
Zn25         O30   2.010       .  S
Zn25         O32   2.035       .  S
Zn25         O36   1.989       .  S
Zn26         O28   1.960       .  S
Zn26         O31   2.030       .  S
Zn26         O34   2.036       .  S
Zn26         O37   1.979       .  S
Zn27         O28   1.986       .  S
Zn27         O35   2.083       .  S
Zn27         O38   2.064       .  S
Zn27         O39   2.039       .  S
O29          C41   1.275       .  A
O30          C42   1.273       .  A
O31          C43   1.276       .  A
O32          C41   1.274       .  A
O33          C43   1.275       .  A
O34          C42   1.275       .  A
O35          C44   1.281       .  A
O36          C45   1.271       .  A
O37          C44   1.269       .  A
O38          C45   1.279       .  A
O39          C46   1.276       .  A
O40          C46   1.269       .  A
C41         C678   1.491       .  S
C42         C697   1.475       .  S
C43         C745   1.484       .  S
C44         C777   1.499       .  S
C45         C729   1.474       .  S
C46        C2414   1.487       .  S
Zn47         O51   1.944       .  S
Zn47         O52   1.990       .  S
Zn47         O56   2.006       .  S
Zn47         O63   2.006       .  S
Zn48         O51   1.947       .  S
Zn48         O53   1.994       .  S
Zn48         O55   2.041       .  S
Zn48         O59   2.048       .  S
Zn49         O51   1.964       .  S
Zn49         O54   2.056       .  S
Zn49         O57   2.042       .  S
Zn49        O912   2.039       .  S
Zn50         O51   1.931       .  S
Zn50         O58   1.961       .  S
Zn50         O61   2.003       .  S
Zn50         O62   2.002       .  S
O52          C64   1.272       .  A
O53          C65   1.272       .  A
O54          C66   1.280       .  A
O55          C64   1.280       .  A
O56          C66   1.270       .  A
O57          C65   1.277       .  A
O58         C919   1.269       .  A
O59          C68   1.276       .  A
O60        Zn901   2.026       .  S
O60          C67   1.274   1_565  A
O61          C68   1.270       .  A
O62          C69   1.272       .  A
O63          C69   1.270       .  A
C64         C649   1.478       .  S
C65         C841   1.487       .  S
C66         C662   1.499       .  S
C67         O910   1.270   1_545  A
C67         C630   1.456       .  S
C68         C617   1.505       .  S
C69        C2529   1.468   1_455  S
Zn70         O74   1.927       .  S
Zn70         O75   2.012       .  S
Zn70         O79   2.039       .  S
Zn70         O86   1.974       .  S
Zn71         O74   1.944       .  S
Zn71         O78   2.032       .  S
Zn71         O82   1.955       .  S
Zn71        O928   2.027   1_545  S
Zn72         O74   1.918       .  S
Zn72         O77   2.004       .  S
Zn72         O80   1.984       .  S
Zn72         O83   1.973       .  S
Zn73         O74   1.995       .  S
Zn73         O81   2.069       .  S
Zn73         O84   2.113       .  S
Zn73         O85   2.079       .  S
O75          C87   1.273       .  A
O76        Zn923   2.018       .  S
O76          C88   1.274       .  A
O77          C89   1.272       .  A
O78          C87   1.274       .  A
O79          C89   1.274       .  A
O80         C940   1.271   1_545  A
O81          C90   1.279       .  A
O82          C91   1.267       .  A
O83          C90   1.267       .  A
O84          C91   1.285       .  A
O85          C92   1.283       .  A
O86          C92   1.272       .  A
C87         C582   1.475       .  S
C88         O932   1.271       .  A
C88         C713   1.468       .  S
C89         C569   1.492       .  S
C90         C598   1.491       .  S
C91         C614   1.507       .  S
C92         C694   1.485       .  S
Zn93         O97   1.933       .  S
Zn93         O98   1.966       .  S
Zn93        O102   2.065       .  S
Zn93        O109   2.045       .  S
Zn94         O97   1.958       .  S
Zn94         O99   2.069       .  S
Zn94        O101   2.063       .  S
Zn94       O1809   2.074       .  S
Zn95         O97   1.913       .  S
Zn95        O100   1.970       .  S
Zn95        O103   1.978       .  S
Zn95        O106   1.973       .  S
Zn96         O97   1.919       .  S
Zn96        O104   2.011       .  S
Zn96        O108   2.029       .  S
Zn96       O1811   1.977       .  S
O98         C110   1.268       .  A
O99         C111   1.281       .  A
O100        C112   1.268       .  A
O101        C110   1.281       .  A
O102        C112   1.281       .  A
O103        C111   1.266       .  A
O104        C113   1.275       .  A
O105      Zn1798   2.073       .  S
O105        C114   1.281       .  A
O106        C113   1.267       .  A
O107      Zn1800   1.977       .  S
O107        C114   1.271       .  A
O108        C115   1.274       .  A
O109        C115   1.278       .  A
C110        C646   1.483       .  S
C111        C550   1.501       .  S
C112        C809   1.481       .  S
C113        C633   1.456       .  S
C114        C790   1.472       .  S
C115        C537   1.503       .  S
Zn116       O120   1.991       .  S
Zn116       O121   2.090       .  S
Zn116       O125   2.054       .  S
Zn116       O132   2.125       .  S
Zn117       O120   1.922       .  S
Zn117       O122   2.038       .  S
Zn117       O124   1.962       .  S
Zn117       O128   2.011       .  S
Zn118       O120   1.920       .  S
Zn118       O123   1.989       .  S
Zn118       O126   2.004       .  S
Zn118       O129   1.989       .  S
Zn119       O120   1.946       .  S
Zn119       O130   2.045       .  S
Zn119       O131   1.964       .  S
Zn119      O1831   2.026       .  S
O121        C133   1.285       .  A
O122        C134   1.275       .  A
O123        C135   1.271       .  A
O124        C133   1.270       .  A
O125        C135   1.277       .  A
O126        C134   1.271       .  A
O127      Zn1823   2.033   1_455  S
O127        C136   1.277       .  A
O128        C137   1.274       .  A
O129       C1840   1.272       .  A
O130        C137   1.276       .  A
O131        C138   1.269       .  A
O132        C138   1.287       .  A
C133        C585   1.487       .  S
C134        C518   1.488       .  S
C135       C1594   1.497   1_545  S
C136       O1833   1.274   1_455  A
C136        C601   1.473       .  S
C137        C726   1.482       .  S
C138        C534   1.502       .  S
Zn139       O143   1.971       .  S
Zn139       O144   2.038       .  S
Zn139       O148   2.067       .  S
Zn139       O155   2.054       .  S
Zn140       O143   1.922       .  S
Zn140       O145   2.007       .  S
Zn140       O147   1.969       .  S
Zn140       O151   1.992       .  S
Zn141       O143   1.935       .  S
Zn141       O146   1.986       .  S
Zn141       O149   2.012       .  S
Zn141       O152   1.979       .  S
Zn142       O143   1.954       .  S
Zn142       O150   2.056       .  S
Zn142       O153   2.071       .  S
Zn142       O154   1.999       .  S
O144        C156   1.275       .  A
O145        C157   1.272       .  A
O146        C158   1.268       .  A
O147        C156   1.270       .  A
O148        C158   1.281       .  A
O149        C157   1.270       .  A
O150        C159   1.282       .  A
O151        C160   1.268       .  A
O152        C159   1.270       .  A
O153        C160   1.279       .  A
O154        C161   1.273       .  A
O155        C161   1.279       .  A
C156        C486   1.463       .  S
C157       C2145   1.471   1_455  S
C158        C553   1.503       .  S
C159        C470   1.485       .  S
C160        C505   1.502       .  S
C161        C454   1.498       .  S
Zn162       O166   1.911       .  S
Zn162       O167   2.010       .  S
Zn162       O171   2.004       .  S
Zn162       O178   1.960       .  S
Zn163       O166   1.932       .  S
Zn163       O168   2.034       .  S
Zn163       O170   2.046       .  S
Zn163       O174   1.955       .  S
Zn164       O166   1.929       .  S
Zn164       O169   2.011       .  S
Zn164       O172   1.978       .  S
Zn164       O175   2.009       .  S
Zn165       O166   1.957       .  S
Zn165       O173   2.054       .  S
Zn165       O176   2.062       .  S
Zn165       O177   2.050       .  S
O167        C179   1.271       .  A
O168        C180   1.279       .  A
O169        C181   1.272       .  A
O170        C179   1.274       .  A
O171        C181   1.273       .  A
O172        C180   1.272       .  A
O173        C182   1.278       .  A
O174        C183   1.268       .  A
O175        C182   1.272       .  A
O176        C183   1.279       .  A
O177        C184   1.278       .  A
O178        C184   1.270       .  A
C179        C502   1.496       .  S
C180        C406   1.475       .  S
C181       C1242   1.474   1_545  S
C182        C566   1.483       .  S
C183        C374   1.495       .  S
C184        C425   1.463       .  S
Zn185       O189   1.961       .  S
Zn185       O194   2.075       .  S
Zn185       O201   2.068       .  S
Zn185      O1894   2.056       .  S
Zn186       O189   1.922       .  S
Zn186       O191   2.033       .  S
Zn186       O197   2.026       .  S
Zn186      O1897   1.964       .  S
Zn187       O189   1.922       .  S
Zn187       O192   2.002       .  S
Zn187       O195   2.003       .  S
Zn187       O198   1.977       .  S
Zn188       O189   1.938       .  S
Zn188       O196   2.040       .  S
Zn188       O199   2.058       .  S
Zn188       O200   1.973       .  S
O190      Zn1889   2.067       .  S
O190        C202   1.281       .  A
O191        C203   1.276       .  A
O192        C204   1.271       .  A
O193      Zn1890   1.966       .  S
O193        C202   1.270       .  A
O194        C204   1.280       .  A
O195        C203   1.270       .  A
O196        C205   1.280       .  A
O197        C206   1.272       .  A
O198        C205   1.272       .  A
O199        C206   1.278       .  A
O200        C207   1.267       .  A
O201        C207   1.281       .  A
C202        C342   1.468       .  S
C203       C1341   1.472       .  S
C204        C665   1.498       .  S
C205        C358   1.474       .  S
C206        C329   1.506       .  S
C207        C473   1.494       .  S
Zn208       O212   1.965       .  S
Zn208       O217   2.057       .  S
Zn208       O224   2.060       .  S
Zn208      O1917   2.042       .  S
Zn209       O212   1.927       .  S
Zn209       O214   2.014       .  S
Zn209       O216   1.958       .  S
Zn209       O220   2.001       .  S
Zn210       O212   1.938       .  S
Zn210       O215   1.999       .  S
Zn210       O218   2.013       .  S
Zn210       O221   1.975       .  S
Zn211       O212   1.951       .  S
Zn211       O219   2.051       .  S
Zn211       O222   2.068       .  S
Zn211       O223   2.009       .  S
O213      Zn1912   2.043       .  S
O213        C225   1.277   1_655  A
O214        C226   1.272       .  A
O215        C227   1.270       .  A
O216       C1929   1.269       .  A
O217        C227   1.278       .  A
O218        C226   1.270       .  A
O219        C228   1.281       .  A
O220        C229   1.271       .  A
O221        C228   1.272       .  A
O222        C229   1.278       .  A
O223        C230   1.274       .  A
O224        C230   1.280       .  A
C225       O1920   1.269   1_455  A
C225        C393   1.461       .  S
C226        C297   1.471       .  S
C227        C681   1.483       .  S
C228        C377   1.489       .  S
C229        C326   1.501       .  S
C230        C310   1.501       .  S
Zn231       O235   1.937       .  S
Zn231       O236   2.008       .  S
Zn231       O240   1.974       .  S
Zn231      O1099   2.000       .  S
Zn232       O235   1.920       .  S
Zn232       O237   1.971       .  S
Zn232       O239   1.999       .  S
Zn232       O243   2.012       .  S
Zn233       O235   1.970       .  S
Zn233       O238   2.093       .  S
Zn233       O241   2.082       .  S
Zn233       O244   2.049       .  S
Zn234       O235   1.918       .  S
Zn234       O242   1.989       .  S
Zn234       O245   1.992       .  S
Zn234       O246   1.995       .  S
O236        C248   1.272       .  A
O237        C249   1.270       .  A
O238        C250   1.284       .  A
O239        C248   1.272       .  A
O240        C250   1.268       .  A
O241        C249   1.283       .  A
O242        C251   1.273       .  A
O243        C252   1.272       .  A
O244        C251   1.277       .  A
O245        C252   1.270       .  A
O246       C1105   1.271       .  A
O247      Zn1083   2.006   1_545  S
O247        C253   1.273       .  A
C248        C361   1.469       .  S
C249        C457   1.484       .  S
C250        C281   1.484       .  S
C251        C345   1.493       .  S
C252        C761   1.472       .  S
C253       O1098   1.273   1_545  A
C253        C438   1.467       .  S
Zn254       O258   1.929       .  S
Zn254       O259   2.040       .  S
Zn254       O263   1.985       .  S
Zn254       O270   2.009       .  S
Zn255       O258   1.927       .  S
Zn255       O260   1.975       .  S
Zn255       O262   2.005       .  S
Zn255       O266   2.008       .  S
Zn256       O258   1.982       .  S
Zn256       O261   2.079       .  S
Zn256       O264   2.043       .  S
Zn256       O267   2.103       .  S
Zn257       O258   1.942       .  S
Zn257       O265   1.978       .  S
Zn257       O269   2.007       .  S
Zn257      O1120   2.012   1_545  S
O259        C271   1.275       .  A
O260        C272   1.268       .  A
O261        C273   1.282       .  A
O262        C271   1.273       .  A
O263        C273   1.271       .  A
O264        C272   1.278       .  A
O265        C274   1.269       .  A
O266       C1127   1.273   1_545  A
O267        C274   1.284       .  A
O268      Zn1109   2.028       .  S
O268        C275   1.276       .  A
O269        C276   1.272       .  A
O270        C276   1.274       .  A
C271        C521   1.485       .  S
C272       C2126   1.486       .  S
C273        C313   1.486       .  S
C274        C278   1.510       .  S
C275       O1118   1.273       .  A
C275        C294   1.481       .  S
C276        C409   1.470       .  S
C277        C278   1.417   1_565  A
C277       C1134   1.406   1_556  A
C277        H284   1.081       .  S
C278        C279   1.418   1_556  A
C279       C1132   1.414       .  A
C279        C286   1.505       .  S
C280        C281   1.408       .  A
C280       C1131   1.412       .  A
C280        H285   1.084       .  S
C281        C282   1.405       .  A
C282       C1129   1.405   1_554  A
C282        C283   1.507   1_554  S
C283        H287   1.111       .  S
C283        H288   1.111   1_556  S
C283        H289   1.110   1_556  S
C286        H290   1.110   1_554  S
C286        H291   1.110   1_554  S
C286        H292   1.109       .  S
C293        C294   1.405       .  A
C293        C298   1.403       .  A
C293        H300   1.084       .  S
C294        C295   1.419       .  A
C295        C296   1.404       .  A
C295       C1154   1.506       .  S
C296        C297   1.398       .  A
C296        H301   1.084       .  S
C297        C298   1.411       .  A
C298        C299   1.508       .  S
C299        H303   1.111       .  S
C299        H304   1.110       .  S
C299        H305   1.111       .  S
C302       C1147   1.505       .  S
C302        H306   1.109       .  S
C302        H307   1.110       .  S
C302        H308   1.111       .  S
C309        C310   1.414       .  A
C309        C314   1.409       .  A
C309        H316   1.084       .  S
C310        C311   1.419       .  A
C311        C312   1.407       .  A
C311        C318   1.508       .  S
C312        C313   1.405       .  A
C312        H317   1.085       .  S
C313        C314   1.409       .  A
C314        C315   1.506       .  S
C315        H319   1.111       .  S
C315        H320   1.110       .  S
C315        H321   1.111       .  S
C318        H323   1.110       .  S
C318       H2026   1.110       .  S
C318       H2028   1.111       .  S
H322       C2022   1.110       .  S
H324       C2022   1.111       .  S
C325        C326   1.408       .  A
C325        C330   1.409   1_556  A
C325        H332   1.084       .  S
C326       C2031   1.419       .  A
C327        C328   1.413   1_656  A
C327       C2030   1.419       .  A
C327        C334   1.508       .  S
C328        C329   1.410       .  A
C328        H333   1.084       .  S
C329       C2034   1.422       .  A
C330       C2033   1.419       .  A
C330        C331   1.508       .  S
C331        H335   1.111       .  S
C331        H336   1.110       .  S
C331        H337   1.110       .  S
C334        H338   1.110       .  S
C334        H339   1.110       .  S
C334        H340   1.111       .  S
C341        C342   1.403       .  A
C341        C346   1.407       .  A
C341        H348   1.084       .  S
C342        C343   1.404       .  A
C343        C344   1.402       .  A
C343        C350   1.507       .  S
C344        C345   1.412       .  A
C344        H349   1.082       .  S
C345        C346   1.420       .  A
C346        C347   1.508       .  S
C347        H351   1.111       .  S
C347        H352   1.110       .  S
C347        H353   1.110       .  S
C350        H355   1.110       .  S
C350        H356   1.110       .  S
C350       H2058   1.111       .  S
H354       C2054   1.111       .  S
C357        C358   1.402       .  A
C357        C362   1.401       .  A
C357        H364   1.082       .  S
C358        C359   1.418       .  A
C359        C360   1.402       .  A
C359        C366   1.509       .  S
C360        C361   1.400       .  A
C360        H365   1.084       .  S
C361        C362   1.413       .  A
C362        C363   1.509       .  S
C363        H367   1.111       .  S
C363        H368   1.109       .  S
C363        H369   1.110       .  S
C366        H370   1.109       .  S
C366        H371   1.110       .  S
C366        H372   1.111       .  S
C373        C374   1.413       .  A
C373        C378   1.400       .  A
C373        H380   1.083       .  S
C374        C375   1.415       .  A
C375        C376   1.406       .  A
C375        C382   1.508       .  S
C376        C377   1.411       .  A
C376        H381   1.084       .  S
C377        C378   1.413       .  A
C378        C379   1.510       .  S
C379        H383   1.111       .  S
C379        H384   1.110       .  S
C379        H385   1.110       .  S
C382        H386   1.110       .  S
C382        H387   1.110       .  S
C382        H388   1.111       .  S
C389        C390   1.403       .  A
C389        C394   1.402       .  A
C389        H396   1.084       .  S
C390       C1033   1.468       .  S
C390        C391   1.410       .  A
C391        C392   1.401       .  A
C391        C398   1.507       .  S
C392        C393   1.402       .  A
C392        H397   1.085       .  S
C393        C394   1.409       .  A
C394       C2099   1.506       .  S
C395       C2098   1.506       .  S
C395        H399   1.111       .  S
C395        H400   1.110       .  S
C395        H401   1.110       .  S
C398        H402   1.110       .  S
C398        H403   1.110       .  S
C398        H404   1.111       .  S
C405        C406   1.407       .  A
C405        C410   1.402       .  A
C405        H412   1.085       .  S
C406        C407   1.414       .  A
C407        C408   1.401       .  A
C407        C414   1.508       .  S
C408        C409   1.403       .  A
C408        H413   1.085       .  S
C409        C410   1.409       .  A
C410        C411   1.507       .  S
C411        H415   1.111   1_545  S
C411        H416   1.110   1_545  S
C411        H417   1.110       .  S
C414        H418   1.110       .  S
C414        H419   1.110       .  S
C414        H420   1.111       .  S
C421        C422   1.403       .  A
C421        C426   1.399       .  A
C421        H428   1.084       .  S
C422       C1976   1.484   1_455  S
C422        C423   1.425       .  A
C423        C424   1.404       .  A
C423        C430   1.510       .  S
C424        C425   1.396       .  A
C424        H429   1.084       .  S
C425        C426   1.412       .  A
C426        C427   1.508       .  S
C427        H431   1.111       .  S
C427        H432   1.110       .  S
C427        H433   1.106       .  S
C430        H436   1.111       .  S
C430       H2138   1.111   1_455  S
C430       H2139   1.109   1_455  S
H434       C2134   1.110       .  S
H435       C2134   1.109       .  S
C437        C438   1.402       .  A
C437        C442   1.399       .  A
C437        H444   1.086       .  S
C438        C439   1.409       .  A
C439        C440   1.404       .  A
C439       C1298   1.506       .  S
C440        C441   1.405       .  A
C440        H445   1.085       .  S
C441       C1861   1.469       .  S
C441        C442   1.412       .  A
C442        C443   1.507       .  S
C443        H447   1.110       .  S
C443        H448   1.108       .  S
C443        H449   1.111       .  S
C446       C1291   1.507       .  S
C446        H450   1.109       .  S
C446        H451   1.110       .  S
C446        H452   1.111       .  S
C453        C454   1.414       .  A
C453        C458   1.406       .  A
C453        H460   1.084       .  S
C454        C455   1.418       .  A
C455        C456   1.406       .  A
C455        C462   1.508       .  S
C456        C457   1.407       .  A
C456        H461   1.085       .  S
C457        C458   1.408       .  A
C458        C459   1.506       .  S
C459        H463   1.111       .  S
C459        H464   1.110       .  S
C459        H465   1.111       .  S
C462        H466   1.110       .  S
C462        H467   1.110       .  S
C462        H468   1.111       .  S
C469        C470   1.399       .  A
C469        C474   1.403       .  A
C469        H476   1.085       .  S
C470        C471   1.420       .  A
C471        C472   1.406       .  A
C471        C478   1.509       .  S
C472        C473   1.404       .  A
C472        H477   1.084       .  S
C473        C474   1.426       .  A
C474        C475   1.510       .  S
C475        H479   1.111       .  S
C475        H480   1.110       .  S
C475        H481   1.110       .  S
C478        H482   1.109       .  S
C478        H483   1.110       .  S
C478       H2188   1.111       .  S
H484       C2182   1.111       .  S
C485        C486   1.399       .  A
C485        C490   1.405       .  A
C485        H492   1.085       .  S
C486        C487   1.413       .  A
C487        C488   1.395       .  A
C487        C494   1.507       .  S
C488        C489   1.397       .  A
C488        H493   1.085       .  S
C489       C1055   1.469   1_545  S
C489        C490   1.417       .  A
C490       C1343   1.505       .  S
C491       C1342   1.504       .  S
C491        H496   1.107       .  S
C491        H497   1.111       .  S
C491       H1347   1.111       .  S
C494        H498   1.110       .  S
C494        H499   1.104       .  S
C494        H500   1.111       .  S
H495       C1343   1.111       .  S
C501        C502   1.404       .  A
C501        C506   1.407   1_556  A
C501        H508   1.084       .  S
C502        C503   1.419       .  A
C503        C504   1.412   1_556  A
C503        C510   1.508       .  S
C504        C505   1.408       .  A
C504        H509   1.084       .  S
C505        C506   1.423       .  A
C506        C507   1.509       .  S
C507        H511   1.111       .  S
C507        H512   1.110       .  S
C507        H513   1.109       .  S
C510        H514   1.111       .  S
C510        H515   1.109       .  S
C510        H516   1.111       .  S
C517        C518   1.408       .  A
C517        C522   1.409       .  A
C517        H524   1.084       .  S
C518        C519   1.416       .  A
C519        C520   1.403       .  A
C519        C526   1.509       .  S
C520        C521   1.405       .  A
C520        H525   1.085       .  S
C521        C522   1.414       .  A
C522        C523   1.506       .  S
C523        H527   1.111       .  S
C523        H528   1.109       .  S
C523        H529   1.110       .  S
C526        H530   1.110       .  S
C526        H531   1.109       .  S
C526        H532   1.111       .  S
C533        C534   1.407       .  A
C533       C2242   1.405       .  A
C533        H540   1.085       .  S
C534        C535   1.415       .  A
C535       C2240   1.419       .  A
C535        C542   1.505       .  S
C536        C537   1.413       .  A
C536       C2239   1.416   1_455  A
C536        H541   1.084       .  S
C537        C538   1.420       .  A
C538       C2237   1.404   1_455  A
C538        C539   1.510       .  S
C539        H543   1.111       .  S
C539        H544   1.111       .  S
C539        H545   1.110       .  S
C542        H546   1.110       .  S
C542        H547   1.110       .  S
C542        H548   1.111       .  S
C549        C550   1.402       .  A
C549        C554   1.406       .  A
C549        H556   1.083       .  S
C550        C551   1.427       .  A
C551        C552   1.408       .  A
C551        C558   1.511       .  S
C552        C553   1.404       .  A
C552        H557   1.083       .  S
C553        C554   1.427       .  A
C554        C555   1.510       .  S
C555        H559   1.111       .  S
C555        H560   1.110       .  S
C555        H561   1.110       .  S
C558        H562   1.110       .  S
C558        H563   1.110       .  S
C558        H564   1.111       .  S
C565        C566   1.405       .  A
C565        C570   1.409       .  A
C565        H572   1.084       .  S
C566        C567   1.411       .  A
C567        C568   1.404       .  A
C567        C574   1.508       .  S
C568        C569   1.409       .  A
C568        H573   1.084       .  S
C569        C570   1.418       .  A
C570        C571   1.508       .  S
C571        H575   1.111       .  S
C571        H576   1.110       .  S
C571        H577   1.110       .  S
C574        H578   1.110       .  S
C574        H579   1.111       .  S
C574        H580   1.111       .  S
C581        C582   1.406       .  A
C581        C586   1.411       .  A
C581        H588   1.085       .  S
C582        C583   1.406       .  A
C583        C584   1.401       .  A
C583        C590   1.508       .  S
C584        C585   1.410       .  A
C584        H589   1.085       .  S
C585        C586   1.413       .  A
C586        C587   1.505       .  S
C587        H591   1.111       .  S
C587        H592   1.110       .  S
C587        H593   1.110       .  S
C590        H594   1.110       .  S
C590        H595   1.110       .  S
C590        H596   1.111       .  S
C597        C598   1.406       .  A
C597        C602   1.408       .  A
C597        H604   1.085       .  S
C598        C599   1.425       .  A
C599        C600   1.403       .  A
C599        C606   1.510       .  S
C600        C601   1.396       .  A
C600        H605   1.085       .  S
C601        C602   1.414       .  A
C602       C2307   1.508       .  S
C603       C2306   1.508       .  S
C603        H608   1.110       .  S
C603        H609   1.110       .  S
C603       H2311   1.111       .  S
C606        H610   1.110       .  S
C606        H611   1.109       .  S
C606        H612   1.111       .  S
H607       C2307   1.111       .  S
C613        C614   1.415   1_565  A
C613       C1470   1.405       .  A
C613        H620   1.083       .  S
C614        C615   1.415       .  A
C615       C1468   1.413       .  A
C615        C622   1.506       .  S
C616        C617   1.415       .  A
C616       C1467   1.410       .  A
C616        H621   1.083       .  S
C617        C618   1.421       .  A
C618       C1465   1.406       .  A
C618        C619   1.509       .  S
C619        H623   1.111       .  S
C619        H624   1.110       .  S
C619        H625   1.110       .  S
C622        H626   1.110       .  S
C622        H627   1.110       .  S
C622        H628   1.111       .  S
C629        C630   1.398       .  A
C629        C634   1.397       .  A
C629        H636   1.084       .  S
C630        C631   1.413       .  A
C631        C632   1.400       .  A
C631        C638   1.507       .  S
C632        C633   1.397       .  A
C632        H637   1.084       .  S
C633        C634   1.412       .  A
C634        C635   1.509       .  S
C635        H639   1.111       .  S
C635        H640   1.110       .  S
C635        H641   1.111       .  S
C638        H642   1.110       .  S
C638        H643   1.109       .  S
C638        H644   1.111       .  S
C645        C646   1.403       .  A
C645        C650   1.407       .  A
C645        H652   1.083       .  S
C646        C647   1.422       .  A
C647        C648   1.400       .  A
C647        C654   1.510       .  S
C648        C649   1.398       .  A
C648        H653   1.084       .  S
C649        C650   1.417       .  A
C650        C651   1.507       .  S
C651        H655   1.111   1_455  S
C651        H656   1.109       .  S
C651        H657   1.111       .  S
C654        H658   1.111       .  S
C654        H659   1.109       .  S
C654        H660   1.111       .  S
C661        C662   1.403       .  A
C661        C666   1.405       .  A
C661        H668   1.084       .  S
C662        C663   1.424       .  A
C663        C664   1.412       .  A
C663        C670   1.508       .  S
C664        C665   1.404       .  A
C664        H669   1.084       .  S
C665        C666   1.421       .  A
C666        C667   1.506       .  S
C667        H671   1.111       .  S
C667        H672   1.109       .  S
C667        H673   1.109       .  S
C670        H674   1.110       .  S
C670        H675   1.110       .  S
C670        H676   1.111       .  S
C677        C678   1.408       .  A
C677        C682   1.406       .  A
C677        H684   1.084       .  S
C678        C679   1.418       .  A
C679        C680   1.409       .  A
C679        C686   1.507       .  S
C680        C681   1.405       .  A
C680        H685   1.084       .  S
C681        C682   1.413       .  A
C682        C683   1.507       .  S
C683        H687   1.111       .  S
C683        H688   1.110       .  S
C683        H689   1.111       .  S
C686        H690   1.110       .  S
C686        H691   1.110       .  S
C686        H692   1.111       .  S
C693        C694   1.408       .  A
C693        C698   1.400       .  A
C693        H700   1.084       .  S
C694        C695   1.413       .  A
C695        C696   1.411       .  A
C695        C702   1.505       .  S
C696        C697   1.406       .  A
C696        H701   1.084       .  S
C697        C698   1.407       .  A
C698        C699   1.508       .  S
C699        H703   1.111       .  S
C699        H704   1.110       .  S
C699        H705   1.110       .  S
C702        H706   1.110       .  S
C702        H707   1.111       .  S
C702        H708   1.111       .  S
C709        C710   1.403       .  A
C709        C714   1.401       .  A
C709        H716   1.085       .  S
C710       C1750   1.482   1_455  S
C710        C711   1.421       .  A
C711        C712   1.405       .  A
C711        C718   1.509       .  S
C712        C713   1.398       .  A
C712        H717   1.085       .  S
C713        C714   1.413       .  A
C714       C1567   1.510       .  S
C715       C1566   1.509       .  S
C715        H719   1.111       .  S
C715        H720   1.110       .  S
C715        H721   1.110       .  S
C718        H722   1.111   1_455  S
C718        H724   1.111       .  S
C718       H2427   1.109   1_455  S
H723       C2422   1.109       .  S
C725        C726   1.404       .  A
C725        C730   1.401       .  A
C725        H732   1.085       .  S
C726        C727   1.413       .  A
C727        C728   1.410       .  A
C727       C2438   1.505       .  S
C728        C729   1.405       .  A
C728        H733   1.084       .  S
C729        C730   1.412       .  A
C730        C731   1.508       .  S
C731        H735   1.111       .  S
C731        H736   1.109       .  S
C731        H737   1.110       .  S
C734       C2431   1.505       .  S
C734        H738   1.110   1_655  S
C734        H739   1.110       .  S
C734        H740   1.111   1_655  S
C741        C742   1.411       .  A
C741        C746   1.401       .  A
C741        H748   1.084       .  S
C742        C987   1.500       .  S
C742        C743   1.420       .  A
C743        C744   1.410       .  A
C743        C750   1.507       .  S
C744        C745   1.407       .  A
C744        H749   1.084       .  S
C745        C746   1.410       .  A
C746        C747   1.508       .  S
C747        H751   1.111       .  S
C747        H752   1.110       .  S
C747        H753   1.109       .  S
C750        H754   1.110       .  S
C750        H755   1.110       .  S
C750        H756   1.111       .  S
C757        C758   1.405       .  A
C757        C762   1.399       .  A
C757        H764   1.085       .  S
C758        C759   1.413       .  A
C759        C760   1.405       .  A
C759        C766   1.506       .  S
C760        C761   1.404       .  A
C760        H765   1.084       .  S
C761        C762   1.412       .  A
C762        C763   1.510       .  S
C763        H767   1.111       .  S
C763        H768   1.111       .  S
C763        H769   1.108       .  S
C766        H770   1.110       .  S
C766        H771   1.110       .  S
C766        H772   1.111       .  S
C773        C774   1.412       .  A
C773        C778   1.410       .  A
C773        H780   1.084       .  S
C774        C775   1.410       .  A
C775        C776   1.406       .  A
C775        C782   1.507       .  S
C776        C777   1.414       .  A
C776        H781   1.084       .  S
C777        C778   1.414       .  A
C778        C779   1.506       .  S
C779        H783   1.109       .  S
C779        H784   1.110       .  S
C779        H785   1.110       .  S
C782        H786   1.111       .  S
C782        H787   1.110       .  S
C782        H788   1.110       .  S
C789        C790   1.404       .  A
C789        C794   1.409       .  A
C789        H796   1.086       .  S
C790        C791   1.405       .  A
C791        C792   1.403       .  A
C791        C798   1.507       .  S
C792        C793   1.414       .  A
C792        H797   1.084       .  S
C793        C874   1.499   1_545  S
C793        C794   1.420       .  A
C794        C795   1.507       .  S
C795        H799   1.111       .  S
C795        H800   1.110       .  S
C795        H801   1.110       .  S
C798        H803   1.110       .  S
C798        H804   1.111       .  S
C798       H2506   1.110       .  S
H802       C2502   1.110       .  S
C805        C806   1.400       .  A
C805        C810   1.405       .  A
C805        H812   1.084       .  S
C806        C807   1.415       .  A
C807        C808   1.405       .  A
C807        C814   1.509       .  S
C808        C809   1.402       .  A
C808        H813   1.082       .  S
C809        C810   1.419       .  A
C810        C811   1.509       .  S
C811        H815   1.111       .  S
C811        H816   1.108       .  S
C811        H817   1.110       .  S
C814        H818   1.109       .  S
C814        H819   1.111       .  S
C814        H820   1.111       .  S
C821        C822   1.405       .  A
C821        C826   1.399       .  A
C821        H828   1.085       .  S
C822        C823   1.411       .  A
C823        C824   1.402       .  A
C823        C830   1.507       .  S
C824        C825   1.403       .  A
C824        H829   1.085       .  S
C825       C1773   1.463       .  S
C825        C826   1.407       .  A
C826        C827   1.506       .  S
C827        H831   1.109       .  S
C827        H832   1.109       .  S
C827        H833   1.110       .  S
C830        H834   1.109       .  S
C830        H835   1.110       .  S
C830        H836   1.111       .  S
C837        C838   1.408       .  A
C837        C842   1.401       .  A
C837        H844   1.085       .  S
C838        C839   1.410       .  A
C839        C840   1.407       .  A
C839        C846   1.506       .  S
C840        C841   1.411       .  A
C840        H845   1.085       .  S
C841        C842   1.414       .  A
C842       C1695   1.509       .  S
C843       C1694   1.508       .  S
C843        H847   1.111       .  S
C843        H848   1.110       .  S
C843        H849   1.110       .  S
C846        H850   1.110       .  S
C846        H851   1.110       .  S
C846        H852   1.111       .  S
Zn853       O857   1.930       .  S
Zn853       O858   1.973       .  S
Zn853       O862   2.016       .  S
Zn853       O869   2.025       .  S
Zn854       O857   1.981       .  S
Zn854       O859   2.092       .  S
Zn854       O861   2.070       .  S
Zn854       O865   2.071       .  S
Zn855       O857   1.946       .  S
Zn855       O860   2.027       .  S
Zn855       O863   1.964       .  S
Zn855       O866   2.012       .  S
Zn856       O857   1.914       .  S
Zn856       O864   1.979       .  S
Zn856       O867   1.978       .  S
Zn856       O868   1.971       .  S
O858        C870   1.270       .  A
O859        C871   1.284       .  A
O860        C872   1.274       .  A
O861        C870   1.282       .  A
O862        C872   1.273       .  A
O863        C871   1.268       .  A
O864        C873   1.269       .  A
O865        C874   1.278       .  A
O866        C873   1.273       .  A
O867        C874   1.269       .  A
O868        C875   1.269       .  A
O869        C875   1.273       .  A
C870       C1690   1.477       .  S
C871       C1626   1.489       .  S
C872       C1658   1.481       .  S
C873       C1674   1.464       .  S
C875       C1610   1.478       .  S
Zn876       O880   1.937       .  S
Zn876       O881   2.021       .  S
Zn876       O885   2.007       .  S
Zn876       O892   1.995       .  S
Zn877       O880   1.936       .  S
Zn877       O882   2.009       .  S
Zn877       O884   2.019       .  S
Zn877       O888   1.981       .  S
Zn878       O880   1.959       .  S
Zn878       O883   2.025       .  S
Zn878       O886   2.040       .  S
Zn878       O889   1.971       .  S
Zn879       O880   1.987       .  S
Zn879       O887   2.083       .  S
Zn879       O890   2.074       .  S
Zn879       O891   2.050       .  S
O881        C893   1.275       .  A
O882        C894   1.272       .  A
O883        C895   1.276       .  A
O884        C893   1.273       .  A
O885        C895   1.274       .  A
O886        C894   1.275       .  A
O887        C896   1.282       .  A
O888        C897   1.271       .  A
O889        C896   1.268       .  A
O890        C897   1.281       .  A
O891        C898   1.277       .  A
O892        C898   1.270       .  A
C893       C1530   1.486       .  S
C894       C1549   1.475       .  S
C895       C1597   1.479       .  S
C896       C1629   1.497       .  S
C897       C1581   1.478       .  S
C898       C3266   1.494       .  S
Zn899       O903   1.935       .  S
Zn899       O904   1.985       .  S
Zn899       O908   2.008       .  S
Zn899       O915   1.991       .  S
Zn900       O903   1.937       .  S
Zn900       O905   1.997       .  S
Zn900       O907   2.041       .  S
Zn900       O911   2.052       .  S
Zn901       O903   1.954       .  S
Zn901       O906   2.059       .  S
Zn901       O909   2.043       .  S
Zn902       O903   1.924       .  S
Zn902       O910   1.965       .  S
Zn902       O913   2.007       .  S
Zn902       O914   2.001       .  S
O904        C916   1.271       .  A
O905        C917   1.273       .  A
O906        C918   1.280       .  A
O907        C916   1.281       .  A
O908        C918   1.270       .  A
O909        C917   1.277       .  A
O911        C920   1.277       .  A
O912        C919   1.275       .  A
O913        C920   1.270       .  A
O914        C921   1.271       .  A
O915        C921   1.269       .  A
C916       C1501   1.481       .  S
C917       C1693   1.497       .  S
C918       C1514   1.504       .  S
C919       C1482   1.465       .  S
C920       C1469   1.503       .  S
C921       C3381   1.465   1_455  S
Zn922       O926   1.919       .  S
Zn922       O927   2.015       .  S
Zn922       O931   2.040       .  S
Zn922       O938   1.975       .  S
Zn923       O926   1.944       .  S
Zn923       O930   2.025       .  S
Zn923       O934   1.959       .  S
Zn924       O926   1.916       .  S
Zn924       O929   2.002       .  S
Zn924       O932   1.996       .  S
Zn924       O935   1.966       .  S
Zn925       O926   1.990       .  S
Zn925       O933   2.061       .  S
Zn925       O936   2.100       .  S
Zn925       O937   2.079       .  S
O927        C939   1.274       .  A
O928        C940   1.275       .  A
O929        C941   1.272       .  A
O930        C939   1.274       .  A
O931        C941   1.276       .  A
O933        C942   1.278       .  A
O934        C943   1.267       .  A
O935        C942   1.266       .  A
O936        C943   1.284       .  A
O937        C944   1.282       .  A
O938        C944   1.271       .  A
C939       C1434   1.476       .  S
C940       C1565   1.475       .  S
C941       C1421   1.479       .  S
C942       C1450   1.492       .  S
C943       C1466   1.491       .  S
C944       C1546   1.481       .  S
Zn945       O949   1.938       .  S
Zn945       O950   1.973       .  S
Zn945       O954   2.060       .  S
Zn945       O961   2.060       .  S
Zn946       O949   1.958       .  S
Zn946       O951   2.078       .  S
Zn946       O953   2.058       .  S
Zn946      O2661   2.068       .  S
Zn947       O949   1.927       .  S
Zn947       O952   1.983       .  S
Zn947       O955   2.001       .  S
Zn947       O958   2.001       .  S
Zn948       O949   1.918       .  S
Zn948       O956   2.005       .  S
Zn948      O2663   1.967       .  S
Zn948       O960   2.025       .  S
O950        C962   1.268       .  A
O951        C963   1.282       .  A
O952        C964   1.271       .  A
O953        C962   1.280       .  A
O954        C964   1.282       .  A
O955        C963   1.271       .  A
O956        C965   1.275       .  A
O957      Zn2650   2.075       .  S
O957        C966   1.280       .  A
O958        C965   1.270       .  A
O959      Zn2652   1.963       .  S
O959        C966   1.269       .  A
O960        C967   1.272       .  A
O961        C967   1.279       .  A
C962       C1498   1.490       .  S
C963       C1402   1.498       .  S
C964       C1661   1.480       .  S
C965       C1485   1.470       .  S
C966       C1642   1.471       .  S
C967       C1389   1.502       .  S
Zn968       O972   1.977       .  S
Zn968       O973   2.066       .  S
Zn968       O977   2.059       .  S
Zn968       O984   2.106       .  S
Zn969       O972   1.920       .  S
Zn969       O974   2.033       .  S
Zn969       O976   1.971       .  S
Zn969       O980   2.011       .  S
Zn970       O972   1.913       .  S
Zn970       O975   1.992       .  S
Zn970       O978   2.002       .  S
Zn970       O981   1.992       .  S
Zn971       O972   1.946       .  S
Zn971      O2683   2.030       .  S
Zn971       O982   2.048       .  S
Zn971       O983   1.968       .  S
O973        C985   1.282       .  A
O974        C986   1.274       .  A
O975        C987   1.272       .  A
O976        C985   1.270       .  A
O977        C987   1.277       .  A
O978        C986   1.271       .  A
O979      Zn2675   2.032   1_455  S
O979        C988   1.276       .  A
O980        C989   1.275       .  A
O981       C2692   1.273       .  A
O982        C989   1.277       .  A
O983        C990   1.269       .  A
O984        C990   1.285       .  A
C985       C1437   1.469       .  S
C986       C1370   1.492       .  S
C988       O2685   1.272   1_455  A
C988       C1453   1.473       .  S
C989       C1578   1.492       .  S
C990       C1386   1.497       .  S
Zn991       O995   1.970       .  S
Zn991       O996   2.055       .  S
Zn991      O1000   2.078       .  S
Zn991      O1007   2.059       .  S
Zn992       O995   1.928       .  S
Zn992       O997   1.990       .  S
Zn992       O999   1.955       .  S
Zn992      O1003   1.995       .  S
Zn993       O995   1.941       .  S
Zn993       O998   1.997       .  S
Zn993      O1001   2.005       .  S
Zn993      O1004   1.988       .  S
Zn994       O995   1.954       .  S
Zn994      O1002   2.057       .  S
Zn994      O1005   2.067       .  S
Zn994      O1006   2.003       .  S
O996       C1008   1.277       .  A
O997       C1009   1.270       .  A
O998       C1010   1.270       .  A
O999       C1008   1.267       .  A
O1000      C1010   1.281       .  A
O1001      C1009   1.269       .  A
O1002      C1011   1.282       .  A
O1003      C1012   1.268       .  A
O1004      C1011   1.271       .  A
O1005      C1012   1.279       .  A
O1006      C1013   1.273       .  A
O1007      C1013   1.280       .  A
C1008      C1338   1.463       .  S
C1009      C2997   1.463   1_455  S
C1010      C1405   1.496       .  S
C1011      C1322   1.486       .  S
C1012      C1357   1.494       .  S
C1013      C1306   1.502       .  S
Zn1014     O1018   1.923       .  S
Zn1014     O1019   2.017       .  S
Zn1014     O1023   2.022       .  S
Zn1014     O1030   1.972       .  S
Zn1015     O1018   1.936       .  S
Zn1015     O1020   2.026       .  S
Zn1015     O1022   2.035       .  S
Zn1015     O1026   1.967       .  S
Zn1016     O1018   1.929       .  S
Zn1016     O1021   1.997       .  S
Zn1016     O1024   1.981       .  S
Zn1016     O1027   1.993       .  S
Zn1017     O1018   1.965       .  S
Zn1017     O1025   2.058       .  S
Zn1017     O1028   2.061       .  S
Zn1017     O1029   2.055       .  S
O1019      C1031   1.272       .  A
O1020      C1032   1.277       .  A
O1021      C1033   1.269       .  A
O1022      C1031   1.274       .  A
O1023      C1033   1.275       .  A
O1024      C1032   1.271       .  A
O1025      C1034   1.278       .  A
O1026      C1035   1.269       .  A
O1027      C1034   1.271       .  A
O1028      C1035   1.279       .  A
O1029      C1036   1.279       .  A
O1030      C1036   1.271       .  A
C1031      C1354   1.500       .  S
C1032      C1258   1.468       .  S
C1034      C1418   1.491       .  S
C1035      C1226   1.497       .  S
C1036      C1277   1.467       .  S
Zn1037     O1041   1.957       .  S
Zn1037     O2746   2.058       .  S
Zn1037     O1046   2.079       .  S
Zn1037     O1053   2.066       .  S
Zn1038     O1041   1.918       .  S
Zn1038     O1043   2.016       .  S
Zn1038     O2749   1.978       .  S
Zn1038     O1049   2.020       .  S
Zn1039     O1041   1.920       .  S
Zn1039     O1044   1.986       .  S
Zn1039     O1047   1.988       .  S
Zn1039     O1050   1.969       .  S
Zn1040     O1041   1.939       .  S
Zn1040     O1048   2.056       .  S
Zn1040     O1051   2.052       .  S
Zn1040     O1052   1.981       .  S
O1042     Zn2741   2.059       .  S
O1042      C1054   1.279       .  A
O1043      C1055   1.276       .  A
O1044      C1056   1.269       .  A
O1045     Zn2742   1.975       .  S
O1045      C1054   1.271       .  A
O1046      C1056   1.281       .  A
O1047      C1055   1.267       .  A
O1048      C1057   1.281       .  A
O1049      C1058   1.271       .  A
O1050      C1057   1.270       .  A
O1051      C1058   1.278       .  A
O1052      C1059   1.269       .  A
O1053      C1059   1.282       .  A
C1054      C1194   1.469       .  S
C1056      C1517   1.502       .  S
C1057      C1210   1.473       .  S
C1058      C1181   1.498       .  S
C1059      C1325   1.494       .  S
Zn1060     O1064   1.951       .  S
Zn1060     O2769   2.034       .  S
Zn1060     O1069   2.054       .  S
Zn1060     O1076   2.045       .  S
Zn1061     O1064   1.919       .  S
Zn1061     O1066   2.005       .  S
Zn1061     O1068   1.972       .  S
Zn1061     O1072   2.005       .  S
Zn1062     O1064   1.926       .  S
Zn1062     O1067   1.983       .  S
Zn1062     O1070   2.006       .  S
Zn1062     O1073   1.973       .  S
Zn1063     O1064   1.946       .  S
Zn1063     O1071   2.063       .  S
Zn1063     O1074   2.066       .  S
Zn1063     O1075   2.015       .  S
O1065     Zn2764   2.044       .  S
O1065      C1077   1.277   1_655  A
O1066      C1078   1.272       .  A
O1067      C1079   1.270       .  A
O1068      C2781   1.269       .  A
O1069      C1079   1.278       .  A
O1070      C1078   1.269       .  A
O1071      C1080   1.282       .  A
O1072      C1081   1.272       .  A
O1073      C1080   1.272       .  A
O1074      C1081   1.280       .  A
O1075      C1082   1.274       .  A
O1076      C1082   1.278       .  A
C1077      O2772   1.270   1_455  A
C1077      C1245   1.463       .  S
C1078      C1149   1.470       .  S
C1079      C1533   1.480       .  S
C1080      C1229   1.489       .  S
C1081      C1178   1.498       .  S
C1082      C1162   1.499       .  S
Zn1083     O1087   1.942       .  S
Zn1083     O1088   2.021       .  S
Zn1083     O1092   1.975       .  S
Zn1084     O1087   1.922       .  S
Zn1084     O1089   1.974       .  S
Zn1084     O1091   2.001       .  S
Zn1084     O1095   2.015       .  S
Zn1085     O1087   1.971       .  S
Zn1085     O1090   2.097       .  S
Zn1085     O1093   2.079       .  S
Zn1085     O1096   2.058       .  S
Zn1086     O1087   1.918       .  S
Zn1086     O1094   1.987       .  S
Zn1086     O1097   1.986       .  S
Zn1086     O1098   2.005       .  S
O1088      C1100   1.273       .  A
O1089      C1101   1.270       .  A
O1090      C1102   1.285       .  A
O1091      C1100   1.272       .  A
O1092      C1102   1.268       .  A
O1093      C1101   1.282       .  A
O1094      C1103   1.272       .  A
O1095      C1104   1.273       .  A
O1096      C1103   1.278       .  A
O1097      C1104   1.270       .  A
O1099      C1105   1.271       .  A
C1100      C1213   1.475       .  S
C1101      C1309   1.483       .  S
C1102      C1133   1.487       .  S
C1103      C1197   1.494       .  S
C1104      C1613   1.477       .  S
C1105      C1290   1.465       .  S
Zn1106     O1110   1.918       .  S
Zn1106     O1111   2.035       .  S
Zn1106     O1115   1.983       .  S
Zn1106     O1122   1.991       .  S
Zn1107     O1110   1.916       .  S
Zn1107     O1112   1.977       .  S
Zn1107     O1114   1.999       .  S
Zn1107     O1118   2.001       .  S
Zn1108     O1110   1.977       .  S
Zn1108     O1113   2.074       .  S
Zn1108     O1116   2.036       .  S
Zn1108     O1119   2.096       .  S
Zn1109     O1110   1.941       .  S
Zn1109     O1117   1.979       .  S
Zn1109     O1121   2.026       .  S
O1111      C1123   1.274       .  A
O1112      C1124   1.268       .  A
O1113      C1125   1.281       .  A
O1114      C1123   1.272       .  A
O1115      C1125   1.272       .  A
O1116      C1124   1.277       .  A
O1117      C1126   1.270       .  A
O1119      C1126   1.283       .  A
O1120      C1127   1.273       .  A
O1121      C1128   1.275       .  A
O1122      C1128   1.273       .  A
C1123      C1373   1.486       .  S
C1124      C2978   1.482       .  S
C1125      C1165   1.487       .  S
C1126      C1130   1.509       .  S
C1127      C1146   1.474       .  S
C1128      C1261   1.479       .  S
C1129      C1130   1.418       .  A
C1129      H1136   1.082       .  S
C1130      C1131   1.419   1_556  A
C1131      C1138   1.506       .  S
C1132      C1133   1.410   1_545  A
C1132      H1137   1.084       .  S
C1133      C1134   1.405       .  A
C1134      C1135   1.507   1_554  S
C1135      H1139   1.111       .  S
C1135      H1140   1.111   1_556  S
C1135      H1141   1.110   1_556  S
C1138      H1142   1.110   1_554  S
C1138      H1143   1.110   1_554  S
C1138      H1144   1.110       .  S
C1145      C1146   1.402       .  A
C1145      C1150   1.405       .  A
C1145      H1152   1.084       .  S
C1146      C1147   1.416       .  A
C1147      C1148   1.399       .  A
C1148      C1149   1.397       .  A
C1148      H1153   1.085       .  S
C1149      C1150   1.415       .  A
C1150      C1151   1.507       .  S
C1151      H1155   1.111       .  S
C1151      H1156   1.110       .  S
C1151      H1157   1.110       .  S
C1154      H1158   1.110       .  S
C1154      H1159   1.109       .  S
C1154      H1160   1.111       .  S
C1161      C1162   1.414       .  A
C1161      C1166   1.410       .  A
C1161      H1168   1.084       .  S
C1162      C1163   1.419       .  A
C1163      C1164   1.403       .  A
C1163      C1170   1.509       .  S
C1164      C1165   1.405       .  A
C1164      H1169   1.085       .  S
C1165      C1166   1.411       .  A
C1166      C1167   1.506       .  S
C1167      H1171   1.111       .  S
C1167      H1172   1.110       .  S
C1167      H1173   1.110       .  S
C1170      H2878   1.110       .  S
C1170      H1175   1.110       .  S
C1170      H2880   1.111       .  S
H1174      C2874   1.110       .  S
H1176      C2874   1.111       .  S
C1177      C1178   1.409       .  A
C1177      C1182   1.411   1_556  A
C1177      H1184   1.084       .  S
C1178      C2883   1.418       .  A
C1179      C2882   1.420       .  A
C1179      C1180   1.409   1_656  A
C1179      C1186   1.508       .  S
C1180      C1181   1.406       .  A
C1180      H1185   1.084       .  S
C1181      C2886   1.418       .  A
C1182      C2885   1.418       .  A
C1182      C1183   1.508       .  S
C1183      H1187   1.111       .  S
C1183      H1188   1.111       .  S
C1183      H1189   1.109       .  S
C1186      H1190   1.110       .  S
C1186      H1191   1.110       .  S
C1186      H1192   1.111       .  S
C1193      C1194   1.403       .  A
C1193      C1198   1.405       .  A
C1193      H1200   1.085       .  S
C1194      C1195   1.404       .  A
C1195      C1196   1.404       .  A
C1195      C1202   1.506       .  S
C1196      C1197   1.413       .  A
C1196      H1201   1.084       .  S
C1197      C1198   1.418       .  A
C1198      C1199   1.507       .  S
C1199      H1203   1.111       .  S
C1199      H1204   1.110       .  S
C1199      H1205   1.110       .  S
C1202      H2910   1.110       .  S
C1202      H1207   1.110       .  S
C1202      H1208   1.111       .  S
H1206      C2906   1.110       .  S
C1209      C1210   1.399       .  A
C1209      C1214   1.401       .  A
C1209      H1216   1.081       .  S
C1210      C1211   1.416       .  A
C1211      C1212   1.405       .  A
C1211      C1218   1.508       .  S
C1212      C1213   1.402       .  A
C1212      H1217   1.083       .  S
C1213      C1214   1.416       .  A
C1214      C1215   1.509       .  S
C1215      H1219   1.111       .  S
C1215      H1220   1.109       .  S
C1215      H1221   1.110       .  S
C1218      H1222   1.109       .  S
C1218      H1223   1.110   1_565  S
C1218      H1224   1.111   1_565  S
C1225      C1226   1.414       .  A
C1225      C1230   1.403       .  A
C1225      H1232   1.083       .  S
C1226      C1227   1.416       .  A
C1227      C1228   1.406       .  A
C1227      C1234   1.508       .  S
C1228      C1229   1.410       .  A
C1228      H1233   1.084       .  S
C1229      C1230   1.412       .  A
C1230      C1231   1.509       .  S
C1231      H1235   1.111       .  S
C1231      H1236   1.110       .  S
C1231      H1237   1.111       .  S
C1234      H1238   1.110       .  S
C1234      H1239   1.110       .  S
C1234      H1240   1.111       .  S
C1241      C1242   1.407       .  A
C1241      C1246   1.404       .  A
C1241      H1248   1.084       .  S
C1242      C1243   1.413       .  A
C1243      C1244   1.399       .  A
C1243      C1250   1.509       .  S
C1244      C1245   1.401       .  A
C1244      H1249   1.085       .  S
C1245      C1246   1.407       .  A
C1246      C2951   1.506       .  S
C1247      C2950   1.506       .  S
C1247      H1251   1.111       .  S
C1247      H1252   1.110       .  S
C1247      H1253   1.110       .  S
C1250      H1254   1.109       .  S
C1250      H1255   1.110       .  S
C1250      H1256   1.111       .  S
C1257      C1258   1.404       .  A
C1257      C1262   1.406       .  A
C1257      H1264   1.084       .  S
C1258      C1259   1.410       .  A
C1259      C1260   1.398       .  A
C1259      C1266   1.510       .  S
C1260      C1261   1.406       .  A
C1260      H1265   1.085       .  S
C1261      C1262   1.414       .  A
C1262      C1263   1.506       .  S
C1263      H1267   1.111       .  S
C1263      H1268   1.110       .  S
C1263      H1269   1.110       .  S
C1266      H1270   1.110       .  S
C1266      H1271   1.111       .  S
C1266      H1272   1.111       .  S
C1273      C1274   1.403       .  A
C1273      C1278   1.400       .  A
C1273      H1280   1.084       .  S
C1274      C2828   1.486   1_455  S
C1274      C1275   1.425       .  A
C1275      C1276   1.405       .  A
C1275      C1282   1.510       .  S
C1276      C1277   1.397       .  A
C1276      H1281   1.084       .  S
C1277      C1278   1.412       .  A
C1278      C1279   1.508       .  S
C1279      H1283   1.111       .  S
C1279      H1284   1.110       .  S
C1279      H1285   1.107       .  S
C1282      H2990   1.111   1_455  S
C1282      H2991   1.109   1_455  S
C1282      H1288   1.111       .  S
H1286      C2986   1.111       .  S
H1287      C2986   1.109       .  S
C1289      C1290   1.402       .  A
C1289      C1294   1.397       .  A
C1289      H1296   1.086       .  S
C1290      C1291   1.410       .  A
C1291      C1292   1.403       .  A
C1292      C1293   1.404       .  A
C1292      H1297   1.085       .  S
C1293      C2713   1.464       .  S
C1293      C1294   1.410       .  A
C1294      C1295   1.507       .  S
C1295      H1299   1.110       .  S
C1295      H1300   1.108       .  S
C1295      H1301   1.111       .  S
C1298      H1302   1.110       .  S
C1298      H1303   1.110       .  S
C1298      H1304   1.111       .  S
C1305      C1306   1.415       .  A
C1305      C1310   1.408       .  A
C1305      H1312   1.083       .  S
C1306      C1307   1.419       .  A
C1307      C1308   1.406       .  A
C1307      C1314   1.508       .  S
C1308      C1309   1.405       .  A
C1308      H1313   1.084       .  S
C1309      C1310   1.408       .  A
C1310      C1311   1.506       .  S
C1311      H1315   1.111       .  S
C1311      H1316   1.110       .  S
C1311      H1317   1.110       .  S
C1314      H1318   1.110       .  S
C1314      H1319   1.110       .  S
C1314      H1320   1.111       .  S
C1321      C1322   1.400       .  A
C1321      C1326   1.404       .  A
C1321      H1328   1.085       .  S
C1322      C1323   1.419       .  A
C1323      C1324   1.406       .  A
C1323      C1330   1.509       .  S
C1324      C1325   1.403       .  A
C1324      H1329   1.084       .  S
C1325      C1326   1.425       .  A
C1326      C1327   1.509       .  S
C1327      H1331   1.111       .  S
C1327      H1332   1.109       .  S
C1327      H1333   1.110       .  S
C1330      H1334   1.109       .  S
C1330      H1335   1.110       .  S
C1330      H3040   1.111   1_455  S
H1336      C3034   1.111       .  S
C1337      C1338   1.398       .  A
C1337      C1342   1.402       .  A
C1337      H1344   1.085       .  S
C1338      C1339   1.414       .  A
C1339      C1340   1.403       .  A
C1339      C1346   1.508       .  S
C1340      C1341   1.400       .  A
C1340      H1345   1.085       .  S
C1341      C1342   1.414       .  A
C1343      H1348   1.110       .  S
C1343      H1349   1.110       .  S
C1346      H1350   1.110       .  S
C1346      H1351   1.110       .  S
C1346      H1352   1.111       .  S
C1353      C1354   1.408       .  A
C1353      C1358   1.409   1_556  A
C1353      H1360   1.084       .  S
C1354      C1355   1.422       .  A
C1355      C1356   1.409   1_556  A
C1355      C1362   1.508       .  S
C1356      C1357   1.404       .  A
C1356      H1361   1.084       .  S
C1357      C1358   1.418       .  A
C1358      C1359   1.508       .  S
C1359      H1363   1.111       .  S
C1359      H1364   1.110       .  S
C1359      H1365   1.109       .  S
C1362      H1366   1.110       .  S
C1362      H1367   1.110       .  S
C1362      H1368   1.111       .  S
C1369      C1370   1.410       .  A
C1369      C1374   1.409       .  A
C1369      H1376   1.084       .  S
C1370      C1371   1.419       .  A
C1371      C1372   1.401       .  A
C1371      C1378   1.510       .  S
C1372      C1373   1.404       .  A
C1372      H1377   1.085       .  S
C1373      C1374   1.414       .  A
C1374      C1375   1.507       .  S
C1375      H1379   1.111       .  S
C1375      H1380   1.110       .  S
C1375      H1381   1.110       .  S
C1378      H1382   1.110       .  S
C1378      H1383   1.109       .  S
C1378      H1384   1.111       .  S
C1385      C1386   1.407       .  A
C1385      C3094   1.405       .  A
C1385      H1392   1.085       .  S
C1386      C1387   1.415       .  A
C1387      C3092   1.414       .  A
C1387      C1394   1.505       .  S
C1388      C3091   1.417   1_455  A
C1388      C1389   1.412       .  A
C1388      H1393   1.084       .  S
C1389      C1390   1.419       .  A
C1390      C3089   1.407   1_455  A
C1390      C1391   1.509       .  S
C1391      H1395   1.111       .  S
C1391      H1396   1.111       .  S
C1391      H1397   1.109       .  S
C1394      H1398   1.110       .  S
C1394      H1399   1.110       .  S
C1394      H1400   1.111       .  S
C1401      C1402   1.402       .  A
C1401      C1406   1.408       .  A
C1401      H1408   1.084       .  S
C1402      C1403   1.424       .  A
C1403      C1404   1.411       .  A
C1403      C1410   1.509       .  S
C1404      C1405   1.403       .  A
C1404      H1409   1.084       .  S
C1405      C1406   1.423       .  A
C1406      C1407   1.510       .  S
C1407      H1411   1.111       .  S
C1407      H1412   1.111       .  S
C1407      H1413   1.109       .  S
C1410      H1414   1.109       .  S
C1410      H1415   1.111       .  S
C1410      H1416   1.111       .  S
C1417      C1418   1.410       .  A
C1417      C1422   1.405       .  A
C1417      H1424   1.084       .  S
C1418      C1419   1.417       .  A
C1419      C1420   1.407       .  A
C1419      C1426   1.507       .  S
C1420      C1421   1.405       .  A
C1420      H1425   1.084       .  S
C1421      C1422   1.409       .  A
C1422      C1423   1.507       .  S
C1423      H1427   1.111       .  S
C1423      H1428   1.110       .  S
C1423      H1429   1.111       .  S
C1426      H1430   1.110       .  S
C1426      H1431   1.110       .  S
C1426      H1432   1.111       .  S
C1433      C1434   1.404       .  A
C1433      C1438   1.402       .  A
C1433      H1440   1.085       .  S
C1434      C1435   1.411       .  A
C1435      C1436   1.406       .  A
C1435      C1442   1.506       .  S
C1436      C1437   1.405       .  A
C1436      H1441   1.085       .  S
C1437      C1438   1.409       .  A
C1438      C1439   1.507       .  S
C1439      H1443   1.111       .  S
C1439      H1444   1.110       .  S
C1439      H1445   1.110       .  S
C1442      H1446   1.110       .  S
C1442      H1447   1.111       .  S
C1442      H1448   1.111       .  S
C1449      C1450   1.407       .  A
C1449      C1454   1.408       .  A
C1449      H1456   1.084       .  S
C1450      C1451   1.426       .  A
C1451      C1452   1.400       .  A
C1451      C1458   1.511       .  S
C1452      C1453   1.396       .  A
C1452      H1457   1.085       .  S
C1453      C1454   1.414       .  A
C1454      C3159   1.508       .  S
C1455      C3158   1.508       .  S
C1455      H3163   1.111       .  S
C1455      H1460   1.110       .  S
C1455      H1461   1.110       .  S
C1458      H1462   1.110       .  S
C1458      H1463   1.109       .  S
C1458      H1464   1.111       .  S
H1459      C3159   1.111       .  S
C1465      C1466   1.407       .  A
C1465      H1472   1.084       .  S
C1466      C1467   1.411       .  A
C1467      C1474   1.506       .  S
C1468      C1469   1.414   1_545  A
C1468      H1473   1.083       .  S
C1469      C1470   1.415       .  A
C1470      C1471   1.510       .  S
C1471      H1475   1.111       .  S
C1471      H1476   1.109       .  S
C1471      H1477   1.111       .  S
C1474      H1478   1.110       .  S
C1474      H1479   1.110       .  S
C1474      H1480   1.111       .  S
C1481      C1482   1.399       .  A
C1481      C1486   1.405       .  A
C1481      H1488   1.083       .  S
C1482      C1483   1.414       .  A
C1483      C1484   1.396       .  A
C1483      C1490   1.509       .  S
C1484      C1485   1.399       .  A
C1484      H1489   1.084       .  S
C1485      C1486   1.417       .  A
C1486      C1487   1.507       .  S
C1487      H1491   1.111       .  S
C1487      H1492   1.110       .  S
C1487      H1493   1.110       .  S
C1490      H1494   1.110       .  S
C1490      H1495   1.107       .  S
C1490      H1496   1.111       .  S
C1497      C1498   1.404       .  A
C1497      C1502   1.406       .  A
C1497      H1504   1.084       .  S
C1498      C1499   1.424       .  A
C1499      C1500   1.400       .  A
C1499      C1506   1.509       .  S
C1500      C1501   1.398       .  A
C1500      H1505   1.085       .  S
C1501      C1502   1.418       .  A
C1502      C1503   1.509       .  S
C1503      H1507   1.111   1_455  S
C1503      H1508   1.109       .  S
C1503      H1509   1.110       .  S
C1506      H1510   1.109       .  S
C1506      H1511   1.110       .  S
C1506      H1512   1.111       .  S
C1513      C1514   1.403       .  A
C1513      C1518   1.405       .  A
C1513      H1520   1.083       .  S
C1514      C1515   1.426       .  A
C1515      C1516   1.412       .  A
C1515      C1522   1.508       .  S
C1516      C1517   1.405       .  A
C1516      H1521   1.084       .  S
C1517      C1518   1.425       .  A
C1518      C1519   1.510       .  S
C1519      H1523   1.111       .  S
C1519      H1524   1.109       .  S
C1519      H1525   1.110       .  S
C1522      H1526   1.110       .  S
C1522      H1527   1.110       .  S
C1522      H1528   1.111       .  S
C1529      C1530   1.407       .  A
C1529      C1534   1.405       .  A
C1529      H1536   1.084       .  S
C1530      C1531   1.416       .  A
C1531      C1532   1.405       .  A
C1531      C1538   1.508       .  S
C1532      C1533   1.404       .  A
C1532      H1537   1.084       .  S
C1533      C1534   1.413       .  A
C1534      C1535   1.507       .  S
C1535      H1539   1.111       .  S
C1535      H1540   1.110       .  S
C1535      H1541   1.110       .  S
C1538      H1542   1.109       .  S
C1538      H1543   1.110       .  S
C1538      H1544   1.111       .  S
C1545      C1546   1.408       .  A
C1545      C1550   1.403       .  A
C1545      H1552   1.085       .  S
C1546      C1547   1.411       .  A
C1547      C1548   1.409       .  A
C1547      C1554   1.505       .  S
C1548      C1549   1.406       .  A
C1548      H1553   1.084       .  S
C1549      C1550   1.408       .  A
C1550      C1551   1.506       .  S
C1551      H1555   1.111       .  S
C1551      H1556   1.110       .  S
C1551      H1557   1.110       .  S
C1554      H1558   1.110       .  S
C1554      H1559   1.111       .  S
C1554      H1560   1.111       .  S
C1561      C1562   1.408       .  A
C1561      C1566   1.404       .  A
C1561      H1568   1.084       .  S
C1562      C2602   1.493   1_455  S
C1562      C1563   1.426       .  A
C1563      C1564   1.402       .  A
C1563      C1570   1.511   1_455  S
C1564      C1565   1.399       .  A
C1564      H1569   1.085       .  S
C1565      C1566   1.413       .  A
C1567      H1571   1.111       .  S
C1567      H1572   1.110       .  S
C1567      H1573   1.111       .  S
C1570      H1574   1.110       .  S
C1570      H3279   1.110       .  S
C1570      H1576   1.111   1_655  S
H1575      C3274   1.109       .  S
C1577      C1578   1.406       .  A
C1577      C1582   1.400       .  A
C1577      H1584   1.084       .  S
C1578      C1579   1.418       .  A
C1579      C1580   1.413       .  A
C1579      C3290   1.506       .  S
C1580      C1581   1.405       .  A
C1580      H1585   1.084       .  S
C1581      C1582   1.414       .  A
C1582      C1583   1.510       .  S
C1583      H1587   1.111       .  S
C1583      H1588   1.109       .  S
C1583      H1589   1.110       .  S
C1586      C3283   1.509       .  S
C1586      H1590   1.110       .  S
C1586      H1591   1.109       .  S
C1586      H1592   1.111       .  S
C1593      C1594   1.411       .  A
C1593      C1598   1.401       .  A
C1593      H1600   1.084       .  S
C1594      C1595   1.419       .  A
C1595      C1596   1.409       .  A
C1595      C1602   1.507       .  S
C1596      C1597   1.406       .  A
C1596      H1601   1.084       .  S
C1597      C1598   1.409       .  A
C1598      C1599   1.507       .  S
C1599      H1603   1.111       .  S
C1599      H1604   1.110       .  S
C1599      H1605   1.109       .  S
C1602      H1606   1.110       .  S
C1602      H1607   1.110       .  S
C1602      H1608   1.110       .  S
C1609      C1610   1.405       .  A
C1609      C1614   1.396       .  A
C1609      H1616   1.085       .  S
C1610      C1611   1.413       .  A
C1611      C1612   1.406       .  A
C1611      C1618   1.507       .  S
C1612      C1613   1.407       .  A
C1612      H1617   1.084       .  S
C1613      C1614   1.414       .  A
C1614      C1615   1.511       .  S
C1615      H1619   1.111       .  S
C1615      H1620   1.110       .  S
C1615      H1621   1.109       .  S
C1618      H1622   1.110       .  S
C1618      H1623   1.110       .  S
C1618      H1624   1.111       .  S
C1625      C1626   1.411       .  A
C1625      C1630   1.408       .  A
C1625      H1632   1.084       .  S
C1626      C1627   1.408       .  A
C1627      C1628   1.407       .  A
C1627      C1634   1.507       .  S
C1628      C1629   1.415       .  A
C1628      H1633   1.083       .  S
C1629      C1630   1.413       .  A
C1630      C1631   1.506       .  S
C1631      H1635   1.110       .  S
C1631      H1636   1.110       .  S
C1631      H1637   1.110       .  S
C1634      H1638   1.110       .  S
C1634      H1639   1.110       .  S
C1634      H1640   1.110       .  S
C1641      C1642   1.405       .  A
C1641      C1646   1.403       .  A
C1641      H1648   1.086       .  S
C1642      C1643   1.405       .  A
C1643      C1644   1.406       .  A
C1643      C1650   1.505       .  S
C1644      C1645   1.411       .  A
C1644      H1649   1.085       .  S
C1645      C1646   1.415       .  A
C1646      C1647   1.508       .  S
C1647      H1651   1.111       .  S
C1647      H1652   1.110       .  S
C1647      H1653   1.110       .  S
C1650      H3358   1.110       .  S
C1650      H1655   1.110       .  S
C1650      H1656   1.111       .  S
H1654      C3354   1.110       .  S
C1657      C1658   1.403       .  A
C1657      C1662   1.408       .  A
C1657      H1664   1.083       .  S
C1658      C1659   1.416       .  A
C1659      C1660   1.403       .  A
C1659      C1666   1.509       .  S
C1660      C1661   1.400       .  A
C1660      H1665   1.081       .  S
C1661      C1662   1.418       .  A
C1662      C1663   1.508       .  S
C1663      H1667   1.111       .  S
C1663      H1668   1.109       .  S
C1663      H1669   1.110       .  S
C1666      H1670   1.109       .  S
C1666      H1671   1.110       .  S
C1666      H1672   1.111       .  S
C1673      C1674   1.402       .  A
C1673      C1678   1.400       .  A
C1673      H1680   1.085       .  S
C1674      C1675   1.411       .  A
C1675      C1676   1.401       .  A
C1675      C1682   1.507       .  S
C1676      C1677   1.403       .  A
C1676      H1681   1.085       .  S
C1677      C2625   1.466       .  S
C1677      C1678   1.411       .  A
C1678      C1679   1.508       .  S
C1679      H1683   1.110       .  S
C1679      H1684   1.109       .  S
C1679      H1685   1.110       .  S
C1682      H1686   1.109       .  S
C1682      H1687   1.110       .  S
C1682      H1688   1.111       .  S
C1689      C1690   1.405       .  A
C1689      C1694   1.406       .  A
C1689      H1696   1.085       .  S
C1690      C1691   1.407       .  A
C1691      C1692   1.404       .  A
C1691      C1698   1.507       .  S
C1692      C1693   1.413       .  A
C1692      H1697   1.084       .  S
C1693      C1694   1.420       .  A
C1695      H1699   1.111       .  S
C1695      H1700   1.110       .  S
C1695      H1701   1.110       .  S
C1698      H1702   1.110       .  S
C1698      H1703   1.110       .  S
C1698      H1704   1.111       .  S
Zn1705     O1709   1.921       .  S
Zn1705     O1710   1.970       .  S
Zn1705     O1714   2.009       .  S
Zn1705     O1721   2.021       .  S
Zn1706     O1709   1.974       .  S
Zn1706     O1711   2.077       .  S
Zn1706     O1713   2.062       .  S
Zn1706     O1717   2.050       .  S
Zn1707     O1709   1.937       .  S
Zn1707     O1712   2.020       .  S
Zn1707     O1715   1.961       .  S
Zn1707     O1718   2.009       .  S
Zn1708     O1709   1.918       .  S
Zn1708     O1716   2.005       .  S
Zn1708     O1719   1.988       .  S
Zn1708     O1720   1.985       .  S
O1710      C1722   1.270       .  A
O1711      C1723   1.282       .  A
O1712      C1724   1.273       .  A
O1713      C1722   1.280       .  A
O1714      C1724   1.272       .  A
O1715      C1723   1.268       .  A
O1716      C1725   1.273       .  A
O1717      C1726   1.277       .  A
O1718      C1725   1.273       .  A
O1719      C1726   1.271       .  A
O1720      C1727   1.271       .  A
O1721      C1727   1.273       .  A
C1722      C2542   1.482       .  S
C1723      C2478   1.487       .  S
C1724      C2510   1.480       .  S
C1725      C2526   1.471       .  S
C1726      C3349   1.489       .  S
C1727      C2462   1.476       .  S
Zn1728     O1732   1.942       .  S
Zn1728     O1733   2.015       .  S
Zn1728     O1737   2.018       .  S
Zn1728     O1744   1.993       .  S
Zn1729     O1732   1.933       .  S
Zn1729     O1734   2.001       .  S
Zn1729     O1736   2.013       .  S
Zn1729     O1740   1.982       .  S
Zn1730     O1732   1.961       .  S
Zn1730     O1735   2.033       .  S
Zn1730     O1738   2.053       .  S
Zn1730     O1741   1.975       .  S
Zn1731     O1732   1.983       .  S
Zn1731     O1739   2.067       .  S
Zn1731     O1742   2.067       .  S
Zn1731     O1743   2.035       .  S
O1733      C1745   1.274       .  A
O1734      C1746   1.272       .  A
O1735      C1747   1.276       .  A
O1736      C1745   1.272       .  A
O1737      C1747   1.275       .  A
O1738      C1746   1.276       .  A
O1739      C1748   1.280       .  A
O1740      C1749   1.270       .  A
O1741      C1748   1.269       .  A
O1742      C1749   1.279       .  A
O1743      C1750   1.275       .  A
O1744      C1750   1.269       .  A
C1745      C2382   1.482       .  S
C1746      C2401   1.478       .  S
C1747      C2449   1.484       .  S
C1748      C2481   1.490       .  S
C1749      C2433   1.477       .  S
Zn1751     O1755   1.932       .  S
Zn1751     O1756   1.975       .  S
Zn1751     O1760   1.995       .  S
Zn1751     O1767   1.993       .  S
Zn1752     O1755   1.948       .  S
Zn1752     O1757   2.002       .  S
Zn1752     O1759   2.062       .  S
Zn1752     O1763   2.057       .  S
Zn1753     O1755   1.958       .  S
Zn1753     O1758   2.065       .  S
Zn1753     O1761   2.037       .  S
Zn1753     O2616   2.040       .  S
Zn1754     O1755   1.931       .  S
Zn1754     O1762   1.970       .  S
Zn1754     O1765   2.010       .  S
Zn1754     O1766   2.005       .  S
O1756      C1768   1.269       .  A
O1757      C1769   1.274       .  A
O1758      C1770   1.280       .  A
O1759      C1768   1.283       .  A
O1760      C1770   1.269       .  A
O1761      C1769   1.277       .  A
O1762      C2623   1.270       .  A
O1763      C1772   1.277       .  A
O1764     Zn2605   2.027       .  S
O1764      C1771   1.274   1_565  A
O1765      C1772   1.271       .  A
O1766      C1773   1.273       .  A
O1767      C1773   1.269       .  A
C1768      C2353   1.492       .  S
C1769      C2545   1.489       .  S
C1770      C2366   1.498       .  S
C1771      O2614   1.271   1_545  A
C1771      C2334   1.459       .  S
C1772      C2321   1.508       .  S
Zn1774     O1778   1.932       .  S
Zn1774     O1779   2.020       .  S
Zn1774     O1783   2.040       .  S
Zn1774     O1790   1.994       .  S
Zn1775     O1778   1.949       .  S
Zn1775     O2632   2.041   1_545  S
Zn1775     O1782   2.032       .  S
Zn1775     O1786   1.951       .  S
Zn1776     O1778   1.923       .  S
Zn1776     O1781   2.004       .  S
Zn1776     O1784   1.998       .  S
Zn1776     O1787   1.973       .  S
Zn1777     O1778   1.990       .  S
Zn1777     O1785   2.055       .  S
Zn1777     O1788   2.099       .  S
Zn1777     O1789   2.076       .  S
O1779      C1791   1.275       .  A
O1780     Zn2627   2.026       .  S
O1780      C1792   1.276       .  A
O1781      C1793   1.273       .  A
O1782      C1791   1.275       .  A
O1783      C1793   1.275       .  A
O1784      C2644   1.272   1_545  A
O1785      C1794   1.278       .  A
O1786      C1795   1.266       .  A
O1787      C1794   1.267       .  A
O1788      C1795   1.284       .  A
O1789      C1796   1.282       .  A
O1790      C1796   1.273       .  A
C1791      C2286   1.475       .  S
C1792      O2636   1.272       .  A
C1792      C2417   1.470       .  S
C1793      C2273   1.492       .  S
C1794      C2302   1.490       .  S
C1795      C2318   1.489       .  S
C1796      C2398   1.492       .  S
Zn1797     O1801   1.933       .  S
Zn1797     O1802   1.965       .  S
Zn1797     O1806   2.059       .  S
Zn1797     O1813   2.051       .  S
Zn1798     O1801   1.956       .  S
Zn1798     O1803   2.087       .  S
Zn1798     O1805   2.067       .  S
Zn1799     O1801   1.915       .  S
Zn1799     O1804   1.973       .  S
Zn1799     O1807   1.990       .  S
Zn1799     O1810   1.977       .  S
Zn1800     O1801   1.921       .  S
Zn1800     O1808   2.018       .  S
Zn1800     O1812   2.035       .  S
O1802      C1814   1.266       .  A
O1803      C1815   1.282       .  A
O1804      C1816   1.270       .  A
O1805      C1814   1.283       .  A
O1806      C1816   1.281       .  A
O1807      C1815   1.269       .  A
O1808      C1817   1.276       .  A
O1809      C1818   1.281   1_455  A
O1810      C1817   1.268       .  A
O1811      C1818   1.269   1_455  A
O1812      C1819   1.273       .  A
O1813      C1819   1.278       .  A
C1814      C2350   1.496       .  S
C1815      C2254   1.497       .  S
C1816      C2513   1.475       .  S
C1817      C2337   1.465       .  S
C1818      C2494   1.473       .  S
C1819      C2241   1.509       .  S
Zn1820     O1824   1.983       .  S
Zn1820     O1825   2.085       .  S
Zn1820     O1829   2.050       .  S
Zn1820     O1836   2.110       .  S
Zn1821     O1824   1.920       .  S
Zn1821     O1826   2.030       .  S
Zn1821     O1828   1.967       .  S
Zn1821     O1832   2.010       .  S
Zn1822     O1824   1.923       .  S
Zn1822     O1827   2.000       .  S
Zn1822     O1830   2.005       .  S
Zn1822     O1833   2.000       .  S
Zn1823     O1824   1.951       .  S
Zn1823     O1834   2.053       .  S
Zn1823     O1835   1.966       .  S
O1825      C1837   1.284       .  A
O1826      C1838   1.274       .  A
O1827      C1839   1.272       .  A
O1828      C1837   1.270       .  A
O1829      C1839   1.276       .  A
O1830      C1838   1.272       .  A
O1831      C1840   1.275       .  A
O1832      C1841   1.274       .  A
O1834      C1841   1.277       .  A
O1835      C1842   1.269       .  A
O1836      C1842   1.285       .  A
C1837      C2289   1.483       .  S
C1838      C2222   1.486       .  S
C1839      C3298   1.498   1_545  S
C1840      C2305   1.471       .  S
C1841      C2430   1.488       .  S
C1842      C2238   1.496       .  S
Zn1843     O1847   1.969       .  S
Zn1843     O1848   2.037       .  S
Zn1843     O1852   2.060       .  S
Zn1843     O1859   2.053       .  S
Zn1844     O1847   1.927       .  S
Zn1844     O1849   2.006       .  S
Zn1844     O1851   1.965       .  S
Zn1844     O1855   2.003       .  S
Zn1845     O1847   1.947       .  S
Zn1845     O1850   2.010       .  S
Zn1845     O1853   2.006       .  S
Zn1845     O1856   1.987       .  S
Zn1846     O1847   1.958       .  S
Zn1846     O1854   2.058       .  S
Zn1846     O1857   2.079       .  S
Zn1846     O1858   1.995       .  S
O1848      C1860   1.275       .  A
O1849      C1861   1.272       .  A
O1850      C1862   1.271       .  A
O1851      C1860   1.269       .  A
O1852      C1862   1.279       .  A
O1853      C1861   1.270       .  A
O1854      C1863   1.283       .  A
O1855      C1864   1.269       .  A
O1856      C1863   1.272       .  A
O1857      C1864   1.279       .  A
O1858      C1865   1.272       .  A
O1859      C1865   1.279       .  A
C1860      C2190   1.460       .  S
C1862      C2257   1.498       .  S
C1863      C2174   1.481       .  S
C1864      C2209   1.501       .  S
C1865      C2158   1.494       .  S
Zn1866     O1870   1.911       .  S
Zn1866     O1871   2.010       .  S
Zn1866     O1875   2.008       .  S
Zn1866     O1882   1.961       .  S
Zn1867     O1870   1.933       .  S
Zn1867     O1872   2.037       .  S
Zn1867     O1874   2.054       .  S
Zn1867     O1878   1.963       .  S
Zn1868     O1870   1.926       .  S
Zn1868     O1873   2.005       .  S
Zn1868     O1876   1.974       .  S
Zn1868     O1879   2.001       .  S
Zn1869     O1870   1.954       .  S
Zn1869     O1877   2.056       .  S
Zn1869     O1880   2.069       .  S
Zn1869     O1881   2.059       .  S
O1871      C1883   1.271       .  A
O1872      C1884   1.279       .  A
O1873      C1885   1.271       .  A
O1874      C1883   1.275       .  A
O1875      C1885   1.273       .  A
O1876      C1884   1.272       .  A
O1877      C1886   1.279       .  A
O1878      C1887   1.269       .  A
O1879      C1886   1.271       .  A
O1880      C1887   1.280       .  A
O1881      C1888   1.280       .  A
O1882      C1888   1.270       .  A
C1883      C2206   1.504       .  S
C1884      C2110   1.475       .  S
C1885      C2946   1.472   1_545  S
C1886      C2270   1.481       .  S
C1887      C2078   1.497       .  S
C1888      C2129   1.466       .  S
Zn1889     O1893   1.959       .  S
Zn1889     O1898   2.077       .  S
Zn1889     O1905   2.082       .  S
Zn1890     O1893   1.919       .  S
Zn1890     O1895   2.023       .  S
Zn1890     O1901   2.017       .  S
Zn1891     O1893   1.922       .  S
Zn1891     O1896   2.004       .  S
Zn1891     O1899   2.002       .  S
Zn1891     O1902   1.984       .  S
Zn1892     O1893   1.933       .  S
Zn1892     O1900   2.039       .  S
Zn1892     O1903   2.050       .  S
Zn1892     O1904   1.967       .  S
O1894      C1906   1.280   1_455  A
O1895      C1907   1.275       .  A
O1896      C1908   1.272       .  A
O1897      C1906   1.271   1_455  A
O1898      C1908   1.281       .  A
O1899      C1907   1.270       .  A
O1900      C1909   1.280       .  A
O1901      C1910   1.271       .  A
O1902      C1909   1.273       .  A
O1903      C1910   1.277       .  A
O1904      C1911   1.267       .  A
O1905      C1911   1.282       .  A
C1906      C2046   1.464       .  S
C1907      C3045   1.473       .  S
C1908      C2369   1.495       .  S
C1909      C2062   1.473       .  S
C1910      C2033   1.500       .  S
C1911      C2177   1.489       .  S
Zn1912     O1916   1.965       .  S
Zn1912     O1921   2.047       .  S
Zn1912     O1928   2.060       .  S
Zn1913     O1916   1.926       .  S
Zn1913     O1918   2.018       .  S
Zn1913     O1920   1.967       .  S
Zn1913     O1924   2.016       .  S
Zn1914     O1916   1.941       .  S
Zn1914     O1919   1.994       .  S
Zn1914     O1922   2.023       .  S
Zn1914     O1925   1.986       .  S
Zn1915     O1916   1.947       .  S
Zn1915     O1923   2.053       .  S
Zn1915     O1926   2.070       .  S
Zn1915     O1927   2.005       .  S
O1917      C1929   1.277       .  A
O1918      C1930   1.274       .  A
O1919      C1931   1.270       .  A
O1921      C1931   1.277       .  A
O1922      C1930   1.272       .  A
O1923      C1932   1.281       .  A
O1924      C1933   1.273       .  A
O1925      C1932   1.273       .  A
O1926      C1933   1.279       .  A
O1927      C1934   1.273       .  A
O1928      C1934   1.279       .  A
C1929      C2097   1.461       .  S
C1930      C2001   1.478       .  S
C1931      C2385   1.478       .  S
C1932      C2081   1.489       .  S
C1933      C2030   1.501       .  S
C1934      C2014   1.501       .  S
Zn1935     O1939   1.935       .  S
Zn1935     O1940   2.014       .  S
Zn1935     O1944   1.973       .  S
Zn1935     O2803   2.000       .  S
Zn1936     O1939   1.915       .  S
Zn1936     O1941   1.967       .  S
Zn1936     O1943   1.998       .  S
Zn1936     O1947   2.012       .  S
Zn1937     O1939   1.969       .  S
Zn1937     O1942   2.099       .  S
Zn1937     O1945   2.083       .  S
Zn1937     O1948   2.050       .  S
Zn1938     O1939   1.913       .  S
Zn1938     O1946   1.981       .  S
Zn1938     O1949   1.987       .  S
Zn1938     O1950   1.995       .  S
O1940      C1952   1.272       .  A
O1941      C1953   1.270       .  A
O1942      C1954   1.286       .  A
O1943      C1952   1.272       .  A
O1944      C1954   1.268       .  A
O1945      C1953   1.283       .  A
O1946      C1955   1.271       .  A
O1947      C1956   1.272       .  A
O1948      C1955   1.277       .  A
O1949      C1956   1.270       .  A
O1950      C2809   1.271       .  A
O1951     Zn2787   2.005   1_545  S
O1951      C1957   1.273       .  A
C1952      C2065   1.472       .  S
C1953      C2161   1.486       .  S
C1954      C1985   1.489       .  S
C1955      C2049   1.491       .  S
C1956      C2465   1.472       .  S
C1957      O2802   1.273   1_545  A
C1957      C2142   1.471       .  S
Zn1958     O1962   1.926       .  S
Zn1958     O1963   2.032       .  S
Zn1958     O1967   1.982       .  S
Zn1958     O1974   2.002       .  S
Zn1959     O1962   1.924       .  S
Zn1959     O1964   1.975       .  S
Zn1959     O1966   2.001       .  S
Zn1959     O1970   2.013       .  S
Zn1960     O1962   1.980       .  S
Zn1960     O1965   2.081       .  S
Zn1960     O1968   2.036       .  S
Zn1960     O1971   2.104       .  S
Zn1961     O1962   1.936       .  S
Zn1961     O1969   1.985       .  S
Zn1961     O2824   2.015   1_545  S
Zn1961     O1973   2.006       .  S
O1963      C1975   1.274       .  A
O1964      C1976   1.268       .  A
O1965      C1977   1.282       .  A
O1966      C1975   1.272       .  A
O1967      C1977   1.271       .  A
O1968      C1976   1.277       .  A
O1969      C1978   1.270       .  A
O1970      C2831   1.274   1_545  A
O1971      C1978   1.284       .  A
O1972     Zn2813   2.032       .  S
O1972      C1979   1.276       .  A
O1973      C1980   1.272       .  A
O1974      C1980   1.274       .  A
C1975      C2225   1.483       .  S
C1977      C2017   1.486       .  S
C1978      C1982   1.510       .  S
C1979      O2822   1.274       .  A
C1979      C1998   1.481       .  S
C1980      C2113   1.469       .  S
C1981      C1982   1.417   1_565  A
C1981      C2838   1.406       .  A
C1981      H1988   1.075       .  S
C1982      C1983   1.417       .  A
C1983      C2836   1.413   1_556  A
C1983      C1990   1.506   1_556  S
C1984      C2835   1.413       .  A
C1984      C1985   1.411       .  A
C1984      H1989   1.084       .  S
C1985      C1986   1.406   1_554  A
C1986      C2833   1.405       .  A
C1986      C1987   1.507       .  S
C1987      H1991   1.111       .  S
C1987      H1992   1.111   1_556  S
C1987      H1993   1.110   1_556  S
C1990      H1994   1.110   1_554  S
C1990      H1995   1.110   1_554  S
C1990      H1996   1.110       .  S
C1997      C1998   1.404       .  A
C1997      C2002   1.408       .  A
C1997      H2004   1.084       .  S
C1998      C1999   1.417       .  A
C1999      C2000   1.402       .  A
C1999      C2858   1.505       .  S
C2000      C2001   1.399       .  A
C2000      H2005   1.084       .  S
C2001      C2002   1.416       .  A
C2002      C2003   1.507       .  S
C2003      H2007   1.111       .  S
C2003      H2008   1.110       .  S
C2003      H2009   1.110       .  S
C2006      C2851   1.503       .  S
C2006      H2010   1.110       .  S
C2006      H2011   1.108       .  S
C2006      H2012   1.111       .  S
C2013      C2014   1.414       .  A
C2013      C2018   1.409       .  A
C2013      H2020   1.084       .  S
C2014      C2015   1.419       .  A
C2015      C2016   1.407       .  A
C2015      C2022   1.508       .  S
C2016      C2017   1.406       .  A
C2016      H2021   1.085       .  S
C2017      C2018   1.409       .  A
C2018      C2019   1.506       .  S
C2019      H2023   1.111       .  S
C2019      H2024   1.110       .  S
C2019      H2025   1.111       .  S
C2022      H2027   1.110       .  S
C2029      C2030   1.407       .  A
C2029      C2034   1.411   1_656  A
C2029      H2036   1.084       .  S
C2031      C2032   1.412   1_556  A
C2031      C2038   1.508       .  S
C2032      C2033   1.408       .  A
C2032      H2037   1.084       .  S
C2034      C2035   1.508       .  S
C2035      H2039   1.111   1_455  S
C2035      H2040   1.110       .  S
C2035      H2041   1.110       .  S
C2038      H2042   1.110       .  S
C2038      H2043   1.110       .  S
C2038      H2044   1.111   1_556  S
C2045      C2046   1.403       .  A
C2045      C2050   1.406       .  A
C2045      H2052   1.084       .  S
C2046      C2047   1.403       .  A
C2047      C2048   1.401       .  A
C2047      C2054   1.507       .  S
C2048      C2049   1.412       .  A
C2048      H2053   1.082       .  S
C2049      C2050   1.419       .  A
C2050      C2051   1.508       .  S
C2051      H2055   1.111       .  S
C2051      H2056   1.110       .  S
C2051      H2057   1.110       .  S
C2054      H2059   1.110       .  S
C2054      H2060   1.110       .  S
C2061      C2062   1.400       .  A
C2061      C2066   1.400       .  A
C2061      H2068   1.082       .  S
C2062      C2063   1.416       .  A
C2063      C2064   1.404       .  A
C2063      C2070   1.508       .  S
C2064      C2065   1.401       .  A
C2064      H2069   1.084       .  S
C2065      C2066   1.415       .  A
C2066      C2067   1.509       .  S
C2067      H2071   1.111       .  S
C2067      H2072   1.109       .  S
C2067      H2073   1.111       .  S
C2070      H2074   1.108       .  S
C2070      H2075   1.110       .  S
C2070      H2076   1.111       .  S
C2077      C2078   1.413       .  A
C2077      C2082   1.401       .  A
C2077      H2084   1.083       .  S
C2078      C2079   1.416       .  A
C2079      C2080   1.408       .  A
C2079      C2086   1.507       .  S
C2080      C2081   1.410       .  A
C2080      H2085   1.084       .  S
C2081      C2082   1.413       .  A
C2082      C2083   1.510       .  S
C2083      H2087   1.111       .  S
C2083      H2088   1.110       .  S
C2083      H2089   1.111       .  S
C2086      H2090   1.110       .  S
C2086      H2091   1.110       .  S
C2086      H2092   1.111       .  S
C2093      C2094   1.405       .  A
C2093      C2098   1.403       .  A
C2093      H2100   1.084       .  S
C2094      C2737   1.470       .  S
C2094      C2095   1.411       .  A
C2095      C2096   1.399       .  A
C2095      C2102   1.508       .  S
C2096      C2097   1.402       .  A
C2096      H2101   1.085       .  S
C2097      C2098   1.408       .  A
C2099      H2103   1.111       .  S
C2099      H2104   1.110       .  S
C2099      H2105   1.110       .  S
C2102      H2106   1.109       .  S
C2102      H2107   1.110       .  S
C2102      H2108   1.111       .  S
C2109      C2110   1.408       .  A
C2109      C2114   1.403       .  A
C2109      H2116   1.085       .  S
C2110      C2111   1.414       .  A
C2111      C2112   1.400       .  A
C2111      C2118   1.508       .  S
C2112      C2113   1.402       .  A
C2112      H2117   1.085       .  S
C2113      C2114   1.409       .  A
C2114      C2115   1.507   1_545  S
C2115      H2119   1.111       .  S
C2115      H2120   1.110       .  S
C2115      H2121   1.111   1_565  S
C2118      H2122   1.110       .  S
C2118      H2123   1.110       .  S
C2118      H2124   1.111       .  S
C2125      C2126   1.402       .  A
C2125      C2130   1.399       .  A
C2125      H2132   1.084       .  S
C2126      C2127   1.425       .  A
C2127      C2128   1.405       .  A
C2127      C2134   1.510       .  S
C2128      C2129   1.396       .  A
C2128      H2133   1.084       .  S
C2129      C2130   1.413       .  A
C2130      C2131   1.507       .  S
C2131      H2135   1.111       .  S
C2131      H2136   1.110       .  S
C2131      H2137   1.106       .  S
C2134      H2140   1.111       .  S
C2141      C2142   1.403       .  A
C2141      C2146   1.400       .  A
C2141      H2148   1.085       .  S
C2142      C2143   1.410       .  A
C2143      C2144   1.405       .  A
C2143      C3002   1.506       .  S
C2144      C2145   1.405       .  A
C2144      H2149   1.084       .  S
C2145      C2146   1.412       .  A
C2146      C2147   1.508       .  S
C2147      H2151   1.110       .  S
C2147      H2152   1.108       .  S
C2147      H2153   1.111       .  S
C2150      C2995   1.507       .  S
C2150      H2154   1.110       .  S
C2150      H2155   1.110       .  S
C2150      H2156   1.111       .  S
C2157      C2158   1.413       .  A
C2157      C2162   1.407       .  A
C2157      H2164   1.084       .  S
C2158      C2159   1.416       .  A
C2159      C2160   1.405       .  A
C2159      C2166   1.508       .  S
C2160      C2161   1.408       .  A
C2160      H2165   1.085       .  S
C2161      C2162   1.409       .  A
C2162      C2163   1.506       .  S
C2163      H2167   1.111       .  S
C2163      H2168   1.110       .  S
C2163      H2169   1.111       .  S
C2166      H2170   1.110       .  S
C2166      H2171   1.110       .  S
C2166      H2172   1.111       .  S
C2173      C2174   1.398       .  A
C2173      C2178   1.402       .  A
C2173      H2180   1.085       .  S
C2174      C2175   1.418       .  A
C2175      C2176   1.409       .  A
C2175      C2182   1.508       .  S
C2176      C2177   1.404       .  A
C2176      H2181   1.084       .  S
C2177      C2178   1.424       .  A
C2178      C2179   1.510       .  S
C2179      H2183   1.111       .  S
C2179      H2184   1.111       .  S
C2179      H2185   1.109       .  S
C2182      H2186   1.109       .  S
C2182      H2187   1.111       .  S
C2189      C2190   1.400       .  A
C2189      C2194   1.403       .  A
C2189      H2196   1.085       .  S
C2190      C2191   1.412       .  A
C2191      C2192   1.398       .  A
C2191      C2198   1.508       .  S
C2192      C2193   1.397       .  A
C2192      H2197   1.085       .  S
C2193      C2759   1.462   1_545  S
C2193      C2194   1.413       .  A
C2194      C3047   1.507       .  S
C2195      C3046   1.505       .  S
C2195      H3051   1.111       .  S
C2195      H2200   1.109       .  S
C2195      H2201   1.110       .  S
C2198      H2202   1.110       .  S
C2198      H2203   1.109       .  S
C2198      H2204   1.111       .  S
H2199      C3047   1.111       .  S
C2205      C2206   1.407       .  A
C2205      C2210   1.408   1_556  A
C2205      H2212   1.084       .  S
C2206      C2207   1.422       .  A
C2207      C2208   1.414   1_556  A
C2207      C2214   1.508       .  S
C2208      C2209   1.407       .  A
C2208      H2213   1.084       .  S
C2209      C2210   1.419       .  A
C2210      C2211   1.509       .  S
C2211      H2215   1.111       .  S
C2211      H2216   1.110       .  S
C2211      H2217   1.109       .  S
C2214      H2218   1.111       .  S
C2214      H2219   1.110       .  S
C2214      H2220   1.111       .  S
C2221      C2222   1.409       .  A
C2221      C2226   1.409       .  A
C2221      H2228   1.085       .  S
C2222      C2223   1.416       .  A
C2223      C2224   1.401       .  A
C2223      C2230   1.509       .  S
C2224      C2225   1.404       .  A
C2224      H2229   1.085       .  S
C2225      C2226   1.414       .  A
C2226      C2227   1.507       .  S
C2227      H2231   1.111       .  S
C2227      H2232   1.110       .  S
C2227      H2233   1.110       .  S
C2230      H2234   1.110       .  S
C2230      H2235   1.109       .  S
C2230      H2236   1.111       .  S
C2237      C2238   1.406       .  A
C2237      H2244   1.085       .  S
C2238      C2239   1.415       .  A
C2239      C2246   1.505       .  S
C2240      C2241   1.416       .  A
C2240      H2245   1.084       .  S
C2241      C2242   1.421       .  A
C2242      C2243   1.510       .  S
C2243      H2247   1.111       .  S
C2243      H2248   1.110       .  S
C2243      H2249   1.110       .  S
C2246      H2250   1.110       .  S
C2246      H2251   1.110       .  S
C2246      H2252   1.111       .  S
C2253      C2254   1.404       .  A
C2253      C2258   1.412       .  A
C2253      H2260   1.084       .  S
C2254      C2255   1.422       .  A
C2255      C2256   1.406       .  A
C2255      C2262   1.508       .  S
C2256      C2257   1.403       .  A
C2256      H2261   1.084       .  S
C2257      C2258   1.423       .  A
C2258      C2259   1.508       .  S
C2259      H2263   1.111       .  S
C2259      H2264   1.109       .  S
C2259      H2265   1.111       .  S
C2262      H2266   1.109       .  S
C2262      H2267   1.109       .  S
C2262      H2268   1.111       .  S
C2269      C2270   1.405       .  A
C2269      C2274   1.409       .  A
C2269      H2276   1.084       .  S
C2270      C2271   1.410       .  A
C2271      C2272   1.404       .  A
C2271      C2278   1.508       .  S
C2272      C2273   1.409       .  A
C2272      H2277   1.084       .  S
C2273      C2274   1.418       .  A
C2274      C2275   1.507       .  S
C2275      H2279   1.111       .  S
C2275      H2280   1.110       .  S
C2275      H2281   1.110       .  S
C2278      H2282   1.110       .  S
C2278      H2283   1.111       .  S
C2278      H2284   1.111       .  S
C2285      C2286   1.406       .  A
C2285      C2290   1.410       .  A
C2285      H2292   1.085       .  S
C2286      C2287   1.406       .  A
C2287      C2288   1.402       .  A
C2287      C2294   1.506       .  S
C2288      C2289   1.409       .  A
C2288      H2293   1.085       .  S
C2289      C2290   1.412       .  A
C2290      C2291   1.505       .  S
C2291      H2295   1.111       .  S
C2291      H2296   1.110       .  S
C2291      H2297   1.111       .  S
C2294      H2298   1.110       .  S
C2294      H2299   1.110       .  S
C2294      H2300   1.111       .  S
C2301      C2302   1.406       .  A
C2301      C2306   1.406       .  A
C2301      H2308   1.085       .  S
C2302      C2303   1.425       .  A
C2303      C2304   1.401       .  A
C2303      C2310   1.511       .  S
C2304      C2305   1.396       .  A
C2304      H2309   1.085       .  S
C2305      C2306   1.413       .  A
C2307      H2312   1.110       .  S
C2307      H2313   1.110       .  S
C2310      H2314   1.110       .  S
C2310      H2315   1.109       .  S
C2310      H2316   1.111       .  S
C2317      C2318   1.407       .  A
C2317      C3174   1.406   1_545  A
C2317      H2324   1.085       .  S
C2318      C2319   1.410       .  A
C2319      C3172   1.410   1_545  A
C2319      C2326   1.506       .  S
C2320      C3171   1.413       .  A
C2320      C2321   1.416       .  A
C2320      H2325   1.083       .  S
C2321      C2322   1.421       .  A
C2322      C3169   1.406       .  A
C2322      C2323   1.509       .  S
C2323      H2327   1.111       .  S
C2323      H2328   1.110       .  S
C2323      H2329   1.110       .  S
C2326      H2330   1.110       .  S
C2326      H2331   1.110       .  S
C2326      H2332   1.111       .  S
C2333      C2334   1.396       .  A
C2333      C2338   1.400       .  A
C2333      H2340   1.083       .  S
C2334      C2335   1.413       .  A
C2335      C2336   1.397       .  A
C2335      C2342   1.506       .  S
C2336      C2337   1.397       .  A
C2336      H2341   1.084       .  S
C2337      C2338   1.416       .  A
C2338      C2339   1.506       .  S
C2339      H2343   1.111       .  S
C2339      H2344   1.110       .  S
C2339      H2345   1.110       .  S
C2342      H2346   1.110       .  S
C2342      H2347   1.105       .  S
C2342      H2348   1.111       .  S
C2349      C2350   1.402       .  A
C2349      C2354   1.405       .  A
C2349      H2356   1.084       .  S
C2350      C2351   1.428       .  A
C2351      C2352   1.404       .  A
C2351      C2358   1.511       .  S
C2352      C2353   1.400       .  A
C2352      H2357   1.084       .  S
C2353      C2354   1.424       .  A
C2354      C2355   1.510       .  S
C2355      H2359   1.111       .  S
C2355      H2360   1.109       .  S
C2355      H2361   1.111       .  S
C2358      H2362   1.109       .  S
C2358      H2363   1.111       .  S
C2358      H2364   1.111       .  S
C2365      C2366   1.403       .  A
C2365      C2370   1.406       .  A
C2365      H2372   1.084       .  S
C2366      C2367   1.424       .  A
C2367      C2368   1.411       .  A
C2367      C2374   1.509       .  S
C2368      C2369   1.403       .  A
C2368      H2373   1.084       .  S
C2369      C2370   1.420       .  A
C2370      C2371   1.507       .  S
C2371      H2375   1.111       .  S
C2371      H2376   1.110       .  S
C2371      H2377   1.109       .  S
C2374      H2378   1.109       .  S
C2374      H2379   1.110       .  S
C2374      H2380   1.111       .  S
C2381      C2382   1.405       .  A
C2381      C2386   1.403       .  A
C2381      H2388   1.084       .  S
C2382      C2383   1.416       .  A
C2383      C2384   1.406       .  A
C2383      C2390   1.508       .  S
C2384      C2385   1.404       .  A
C2384      H2389   1.084       .  S
C2385      C2386   1.412       .  A
C2386      C2387   1.507       .  S
C2387      H2391   1.111       .  S
C2387      H2392   1.110       .  S
C2387      H2393   1.110       .  S
C2390      H2394   1.110       .  S
C2390      H2395   1.110       .  S
C2390      H2396   1.111       .  S
C2397      C2398   1.409       .  A
C2397      C2402   1.403       .  A
C2397      H2404   1.084       .  S
C2398      C2399   1.416       .  A
C2399      C2400   1.412       .  A
C2399      C2406   1.505       .  S
C2400      C2401   1.406       .  A
C2400      H2405   1.084       .  S
C2401      C2402   1.409       .  A
C2402      C2403   1.508       .  S
C2403      H2407   1.111       .  S
C2403      H2408   1.110       .  S
C2403      H2409   1.110       .  S
C2406      H2410   1.110       .  S
C2406      H2411   1.110       .  S
C2406      H2412   1.111       .  S
C2413      C2414   1.405       .  A
C2413      C2418   1.403       .  A
C2413      H2420   1.084       .  S
C2414      C2415   1.423       .  A
C2415      C2416   1.404       .  A
C2415      C2422   1.510       .  S
C2416      C2417   1.398       .  A
C2416      H2421   1.085       .  S
C2417      C2418   1.413       .  A
C2418      C3271   1.509       .  S
C2419      C3270   1.508       .  S
C2419      H2423   1.111       .  S
C2419      H2424   1.110       .  S
C2419      H2425   1.111       .  S
C2422      H2426   1.111       .  S
C2422      H2428   1.111       .  S
C2429      C2430   1.405       .  A
C2429      C2434   1.400       .  A
C2429      H2436   1.085       .  S
C2430      C2431   1.416       .  A
C2431      C2432   1.413       .  A
C2432      C2433   1.406       .  A
C2432      H2437   1.084       .  S
C2433      C2434   1.412       .  A
C2434      C2435   1.509       .  S
C2435      H2439   1.111       .  S
C2435      H2440   1.109       .  S
C2435      H2441   1.110       .  S
C2438      H2442   1.110       .  S
C2438      H2443   1.111       .  S
C2438      H2444   1.111       .  S
C2445      C2446   1.412       .  A
C2445      C2450   1.404       .  A
C2445      H2452   1.084       .  S
C2446      C2691   1.499       .  S
C2446      C2447   1.419       .  A
C2447      C2448   1.409       .  A
C2447      C2454   1.507       .  S
C2448      C2449   1.406       .  A
C2448      H2453   1.084       .  S
C2449      C2450   1.411       .  A
C2450      C2451   1.507       .  S
C2451      H2455   1.111       .  S
C2451      H2456   1.110       .  S
C2451      H2457   1.109       .  S
C2454      H2458   1.110       .  S
C2454      H2459   1.110       .  S
C2454      H2460   1.110       .  S
C2461      C2462   1.405       .  A
C2461      C2466   1.397       .  A
C2461      H2468   1.085       .  S
C2462      C2463   1.413       .  A
C2463      C2464   1.405       .  A
C2463      C2470   1.506       .  S
C2464      C2465   1.405       .  A
C2464      H2469   1.085       .  S
C2465      C2466   1.412       .  A
C2466      C2467   1.510       .  S
C2467      H2471   1.111       .  S
C2467      H2472   1.111       .  S
C2467      H2473   1.109       .  S
C2470      H2474   1.110       .  S
C2470      H2475   1.110       .  S
C2470      H2476   1.111       .  S
C2477      C2478   1.412       .  A
C2477      C2482   1.405       .  A
C2477      H2484   1.083       .  S
C2478      C2479   1.410       .  A
C2479      C2480   1.406       .  A
C2479      C2486   1.507       .  S
C2480      C2481   1.413       .  A
C2480      H2485   1.083       .  S
C2481      C2482   1.411       .  A
C2482      C2483   1.507       .  S
C2483      H2487   1.109       .  S
C2483      H2488   1.110       .  S
C2483      H2489   1.110       .  S
C2486      H2490   1.111       .  S
C2486      H2491   1.110       .  S
C2486      H2492   1.110       .  S
C2493      C2494   1.402       .  A
C2493      C2498   1.409       .  A
C2493      H2500   1.086       .  S
C2494      C2495   1.406       .  A
C2495      C2496   1.405       .  A
C2495      C2502   1.507       .  S
C2496      C2497   1.414       .  A
C2496      H2501   1.084       .  S
C2497      C2578   1.501   1_545  S
C2497      C2498   1.421       .  A
C2498      C2499   1.507       .  S
C2499      H2503   1.111       .  S
C2499      H2504   1.110       .  S
C2499      H2505   1.110       .  S
C2502      H2507   1.110       .  S
C2502      H2508   1.111       .  S
C2509      C2510   1.403       .  A
C2509      C2514   1.406       .  A
C2509      H2516   1.081       .  S
C2510      C2511   1.418       .  A
C2511      C2512   1.404       .  A
C2511      C2518   1.510       .  S
C2512      C2513   1.401       .  A
C2512      H2517   1.079       .  S
C2513      C2514   1.415       .  A
C2514      C2515   1.508       .  S
C2515      H2519   1.111       .  S
C2515      H2520   1.109       .  S
C2515      H2521   1.110       .  S
C2518      H2522   1.109       .  S
C2518      H2523   1.111       .  S
C2518      H2524   1.111       .  S
C2525      C2526   1.404       .  A
C2525      C2530   1.401       .  A
C2525      H2532   1.084       .  S
C2526      C2527   1.412       .  A
C2527      C2528   1.404       .  A
C2527      C2534   1.507       .  S
C2528      C2529   1.403       .  A
C2528      H2533   1.084       .  S
C2529      C2530   1.408       .  A
C2530      C2531   1.507       .  S
C2531      H2535   1.109       .  S
C2531      H2536   1.109       .  S
C2531      H2537   1.110       .  S
C2534      H2538   1.109       .  S
C2534      H2539   1.110       .  S
C2534      H2540   1.111       .  S
C2541      C2542   1.406       .  A
C2541      C2546   1.402       .  A
C2541      H2548   1.085       .  S
C2542      C2543   1.411       .  A
C2543      C2544   1.407       .  A
C2543      C2550   1.506       .  S
C2544      C2545   1.411       .  A
C2544      H2549   1.085       .  S
C2545      C2546   1.416       .  A
C2546      C3399   1.509       .  S
C2547      C3398   1.509       .  S
C2547      H2551   1.111       .  S
C2547      H2552   1.110       .  S
C2547      H2553   1.111       .  S
C2550      H2554   1.110       .  S
C2550      H2555   1.111       .  S
C2550      H2556   1.111       .  S
Zn2557     O2561   1.927       .  S
Zn2557     O2562   1.958       .  S
Zn2557     O2566   2.009       .  S
Zn2557     O2573   2.042       .  S
Zn2558     O2561   1.981       .  S
Zn2558     O2563   2.091       .  S
Zn2558     O2565   2.060       .  S
Zn2558     O2569   2.062       .  S
Zn2559     O2561   1.943       .  S
Zn2559     O2564   2.026       .  S
Zn2559     O2567   1.964       .  S
Zn2559     O2570   1.999       .  S
Zn2560     O2561   1.917       .  S
Zn2560     O2568   1.983       .  S
Zn2560     O2571   1.993       .  S
Zn2560     O2572   1.987       .  S
O2562      C2574   1.270       .  A
O2563      C2575   1.283       .  A
O2564      C2576   1.273       .  A
O2565      C2574   1.281       .  A
O2566      C2576   1.272       .  A
O2567      C2575   1.267       .  A
O2568      C2577   1.271       .  A
O2569      C2578   1.277       .  A
O2570      C2577   1.273       .  A
O2571      C2578   1.271       .  A
O2572      C2579   1.271       .  A
O2573      C2579   1.274       .  A
C2574      C3394   1.476       .  S
C2575      C3330   1.490       .  S
C2576      C3362   1.480       .  S
C2577      C3378   1.461       .  S
C2579      C3314   1.483       .  S
Zn2580     O2584   1.937       .  S
Zn2580     O2585   2.013       .  S
Zn2580     O2589   2.008       .  S
Zn2580     O2596   1.981       .  S
Zn2581     O2584   1.930       .  S
Zn2581     O2586   2.005       .  S
Zn2581     O2588   2.019       .  S
Zn2581     O2592   1.977       .  S
Zn2582     O2584   1.957       .  S
Zn2582     O2587   2.033       .  S
Zn2582     O2590   2.043       .  S
Zn2582     O2593   1.973       .  S
Zn2583     O2584   1.990       .  S
Zn2583     O2591   2.085       .  S
Zn2583     O2594   2.083       .  S
Zn2583     O2595   2.036       .  S
O2585      C2597   1.274       .  A
O2586      C2598   1.273       .  A
O2587      C2599   1.276       .  A
O2588      C2597   1.272       .  A
O2589      C2599   1.273       .  A
O2590      C2598   1.276       .  A
O2591      C2600   1.283       .  A
O2592      C2601   1.271       .  A
O2593      C2600   1.269       .  A
O2594      C2601   1.281       .  A
O2595      C2602   1.276       .  A
O2596      C2602   1.267       .  A
C2597      C3234   1.486       .  S
C2598      C3253   1.473       .  S
C2599      C3301   1.483       .  S
C2600      C3333   1.495       .  S
C2601      C3285   1.493       .  S
Zn2603     O2607   1.916       .  S
Zn2603     O2608   1.963       .  S
Zn2603     O2612   1.971       .  S
Zn2603     O2619   1.993       .  S
Zn2604     O2607   1.944       .  S
Zn2604     O2609   1.997       .  S
Zn2604     O2611   2.059       .  S
Zn2604     O2615   2.052       .  S
Zn2605     O2607   1.959       .  S
Zn2605     O2610   2.066       .  S
Zn2605     O2613   2.021       .  S
Zn2606     O2607   1.921       .  S
Zn2606     O2614   1.967       .  S
Zn2606     O2617   1.994       .  S
Zn2606     O2618   2.005       .  S
O2608      C2620   1.266       .  A
O2609      C2621   1.273       .  A
O2610      C2622   1.279       .  A
O2611      C2620   1.282       .  A
O2612      C2622   1.266       .  A
O2613      C2621   1.275       .  A
O2615      C2624   1.277       .  A
O2616      C2623   1.276       .  A
O2617      C2624   1.269       .  A
O2618      C2625   1.272       .  A
O2619      C2625   1.269       .  A
C2620      C3205   1.493       .  S
C2621      C3397   1.483       .  S
C2622      C3218   1.496       .  S
C2623      C3186   1.465       .  S
C2624      C3173   1.503       .  S
Zn2626     O2630   1.918       .  S
Zn2626     O2631   2.013       .  S
Zn2626     O2635   2.044       .  S
Zn2626     O2642   1.982       .  S
Zn2627     O2630   1.946       .  S
Zn2627     O2634   2.040       .  S
Zn2627     O2638   1.965       .  S
Zn2628     O2630   1.920       .  S
Zn2628     O2633   2.005       .  S
Zn2628     O2636   1.995       .  S
Zn2628     O2639   1.974       .  S
Zn2629     O2630   1.985       .  S
Zn2629     O2637   2.053       .  S
Zn2629     O2640   2.103       .  S
Zn2629     O2641   2.071       .  S
O2631      C2643   1.275       .  A
O2632      C2644   1.276       .  A
O2633      C2645   1.271       .  A
O2634      C2643   1.276       .  A
O2635      C2645   1.276       .  A
O2637      C2646   1.277       .  A
O2638      C2647   1.267       .  A
O2639      C2646   1.268       .  A
O2640      C2647   1.284       .  A
O2641      C2648   1.282       .  A
O2642      C2648   1.272       .  A
C2643      C3138   1.488       .  S
C2644      C3269   1.479       .  S
C2645      C3125   1.479       .  S
C2646      C3154   1.486       .  S
C2647      C3170   1.493       .  S
C2648      C3250   1.481       .  S
Zn2649     O2653   1.934       .  S
Zn2649     O2654   1.970       .  S
Zn2649     O2658   2.049       .  S
Zn2649     O2665   2.048       .  S
Zn2650     O2653   1.960       .  S
Zn2650     O2655   2.077       .  S
Zn2650     O2657   2.066       .  S
Zn2651     O2653   1.923       .  S
Zn2651     O2656   1.981       .  S
Zn2651     O2659   1.990       .  S
Zn2651     O2662   2.001       .  S
Zn2652     O2653   1.913       .  S
Zn2652     O2660   2.000       .  S
Zn2652     O2664   2.016       .  S
O2654      C2666   1.266       .  A
O2655      C2667   1.283       .  A
O2656      C2668   1.271       .  A
O2657      C2666   1.282       .  A
O2658      C2668   1.280       .  A
O2659      C2667   1.270       .  A
O2660      C2669   1.274       .  A
O2661      C2670   1.280   1_455  A
O2662      C2669   1.270       .  A
O2663      C2670   1.269   1_455  A
O2664      C2671   1.272       .  A
O2665      C2671   1.277       .  A
C2666      C3202   1.497       .  S
C2667      C3106   1.497       .  S
C2668      C3365   1.475       .  S
C2669      C3189   1.471       .  S
C2670      C3346   1.469       .  S
C2671      C3093   1.502       .  S
Zn2672     O2676   1.985       .  S
Zn2672     O2677   2.081       .  S
Zn2672     O2681   2.059       .  S
Zn2672     O2688   2.118       .  S
Zn2673     O2676   1.936       .  S
Zn2673     O2678   2.041       .  S
Zn2673     O2680   1.972       .  S
Zn2673     O2684   2.014       .  S
Zn2674     O2676   1.927       .  S
Zn2674     O2679   1.997       .  S
Zn2674     O2682   2.001       .  S
Zn2674     O2685   1.988       .  S
Zn2675     O2676   1.959       .  S
Zn2675     O2686   2.048       .  S
Zn2675     O2687   1.970       .  S
O2677      C2689   1.283       .  A
O2678      C2690   1.275       .  A
O2679      C2691   1.271       .  A
O2680      C2689   1.271       .  A
O2681      C2691   1.277       .  A
O2682      C2690   1.270       .  A
O2683      C2692   1.276       .  A
O2684      C2693   1.273       .  A
O2686      C2693   1.276       .  A
O2687      C2694   1.268       .  A
O2688      C2694   1.286       .  A
C2689      C3141   1.475       .  S
C2690      C3074   1.492       .  S
C2692      C3157   1.470       .  S
C2693      C3282   1.483       .  S
C2694      C3090   1.497       .  S
Zn2695     O2699   1.963       .  S
Zn2695     O2700   2.047       .  S
Zn2695     O2704   2.077       .  S
Zn2695     O2711   2.060       .  S
Zn2696     O2699   1.925       .  S
Zn2696     O2701   2.008       .  S
Zn2696     O2703   1.971       .  S
Zn2696     O2707   2.001       .  S
Zn2697     O2699   1.931       .  S
Zn2697     O2702   1.981       .  S
Zn2697     O2705   1.995       .  S
Zn2697     O2708   1.973       .  S
Zn2698     O2699   1.949       .  S
Zn2698     O2706   2.049       .  S
Zn2698     O2709   2.060       .  S
Zn2698     O2710   2.001       .  S
O2700      C2712   1.277       .  A
O2701      C2713   1.272       .  A
O2702      C2714   1.268       .  A
O2703      C2712   1.270       .  A
O2704      C2714   1.281       .  A
O2705      C2713   1.268       .  A
O2706      C2715   1.281       .  A
O2707      C2716   1.269       .  A
O2708      C2715   1.270       .  A
O2709      C2716   1.278       .  A
O2710      C2717   1.273       .  A
O2711      C2717   1.280       .  A
C2712      C3042   1.464       .  S
C2714      C3109   1.494       .  S
C2715      C3026   1.480       .  S
C2716      C3061   1.497       .  S
C2717      C3010   1.502       .  S
Zn2718     O2722   1.914       .  S
Zn2718     O2723   2.003       .  S
Zn2718     O2727   2.010       .  S
Zn2718     O2734   1.972       .  S
Zn2719     O2722   1.936       .  S
Zn2719     O2724   2.041       .  S
Zn2719     O2726   2.053       .  S
Zn2719     O2730   1.969       .  S
Zn2720     O2722   1.926       .  S
Zn2720     O2725   1.999       .  S
Zn2720     O2728   1.978       .  S
Zn2720     O2731   1.995       .  S
Zn2721     O2722   1.961       .  S
Zn2721     O2729   2.058       .  S
Zn2721     O2732   2.060       .  S
Zn2721     O2733   2.056       .  S
O2723      C2735   1.270       .  A
O2724      C2736   1.280       .  A
O2725      C2737   1.270       .  A
O2726      C2735   1.276       .  A
O2727      C2737   1.273       .  A
O2728      C2736   1.271       .  A
O2729      C2738   1.278       .  A
O2730      C2739   1.269       .  A
O2731      C2738   1.272       .  A
O2732      C2739   1.279       .  A
O2733      C2740   1.279       .  A
O2734      C2740   1.272       .  A
C2735      C3058   1.499       .  S
C2736      C2962   1.471       .  S
C2738      C3122   1.495       .  S
C2739      C2930   1.494       .  S
C2740      C2981   1.467       .  S
Zn2741     O2745   1.959       .  S
Zn2741     O2750   2.057       .  S
Zn2741     O2757   2.053       .  S
Zn2742     O2745   1.926       .  S
Zn2742     O2747   2.016       .  S
Zn2742     O2753   2.027       .  S
Zn2743     O2745   1.931       .  S
Zn2743     O2748   1.985       .  S
Zn2743     O2751   1.983       .  S
Zn2743     O2754   1.972       .  S
Zn2744     O2745   1.938       .  S
Zn2744     O2752   2.044       .  S
Zn2744     O2755   2.035       .  S
Zn2744     O2756   1.972       .  S
O2746      C2758   1.280   1_455  A
O2747      C2759   1.275       .  A
O2748      C2760   1.267       .  A
O2749      C2758   1.272   1_455  A
O2750      C2760   1.281       .  A
O2751      C2759   1.267       .  A
O2752      C2761   1.279       .  A
O2753      C2762   1.272       .  A
O2754      C2761   1.269       .  A
O2755      C2762   1.276       .  A
O2756      C2763   1.267       .  A
O2757      C2763   1.280       .  A
C2758      C2898   1.468       .  S
C2760      C3221   1.498       .  S
C2761      C2914   1.474       .  S
C2762      C2885   1.497       .  S
C2763      C3029   1.488       .  S
Zn2764     O2768   1.958       .  S
Zn2764     O2773   2.055       .  S
Zn2764     O2780   2.062       .  S
Zn2765     O2768   1.926       .  S
Zn2765     O2770   2.013       .  S
Zn2765     O2772   1.969       .  S
Zn2765     O2776   2.012       .  S
Zn2766     O2768   1.930       .  S
Zn2766     O2771   1.974       .  S
Zn2766     O2774   2.006       .  S
Zn2766     O2777   1.972       .  S
Zn2767     O2768   1.942       .  S
Zn2767     O2775   2.055       .  S
Zn2767     O2778   2.060       .  S
Zn2767     O2779   2.007       .  S
O2769      C2781   1.275       .  A
O2770      C2782   1.273       .  A
O2771      C2783   1.268       .  A
O2773      C2783   1.278       .  A
O2774      C2782   1.269       .  A
O2775      C2784   1.281       .  A
O2776      C2785   1.273       .  A
O2777      C2784   1.271       .  A
O2778      C2785   1.279       .  A
O2779      C2786   1.273       .  A
O2780      C2786   1.280       .  A
C2781      C2949   1.460       .  S
C2782      C2853   1.468       .  S
C2783      C3237   1.476       .  S
C2784      C2933   1.483       .  S
C2785      C2882   1.502       .  S
C2786      C2866   1.503       .  S
Zn2787     O2791   1.947       .  S
Zn2787     O2792   2.022       .  S
Zn2787     O2796   1.972       .  S
Zn2788     O2791   1.930       .  S
Zn2788     O2793   1.969       .  S
Zn2788     O2795   2.004       .  S
Zn2788     O2799   2.024       .  S
Zn2789     O2791   1.979       .  S
Zn2789     O2794   2.096       .  S
Zn2789     O2797   2.086       .  S
Zn2789     O2800   2.048       .  S
Zn2790     O2791   1.927       .  S
Zn2790     O2798   1.998       .  S
Zn2790     O2801   2.006       .  S
Zn2790     O2802   2.012       .  S
O2792      C2804   1.273       .  A
O2793      C2805   1.269       .  A
O2794      C2806   1.284       .  A
O2795      C2804   1.273       .  A
O2796      C2806   1.267       .  A
O2797      C2805   1.283       .  A
O2798      C2807   1.273       .  A
O2799      C2808   1.273       .  A
O2800      C2807   1.277       .  A
O2801      C2808   1.272       .  A
O2803      C2809   1.272       .  A
C2804      C2917   1.474       .  S
C2805      C3013   1.482       .  S
C2806      C2837   1.490       .  S
C2807      C2901   1.492       .  S
C2808      C3317   1.481       .  S
C2809      C2994   1.463       .  S
Zn2810     O2814   1.929       .  S
Zn2810     O2815   2.035       .  S
Zn2810     O2819   1.993       .  S
Zn2810     O2826   1.997       .  S
Zn2811     O2814   1.927       .  S
Zn2811     O2816   1.980       .  S
Zn2811     O2818   2.005       .  S
Zn2811     O2822   2.014       .  S
Zn2812     O2814   1.984       .  S
Zn2812     O2817   2.078       .  S
Zn2812     O2820   2.041       .  S
Zn2812     O2823   2.102       .  S
Zn2813     O2814   1.947       .  S
Zn2813     O2821   1.979       .  S
Zn2813     O2825   2.029       .  S
O2815      C2827   1.274       .  A
O2816      C2828   1.268       .  A
O2817      C2829   1.281       .  A
O2818      C2827   1.273       .  A
O2819      C2829   1.272       .  A
O2820      C2828   1.278       .  A
O2821      C2830   1.270       .  A
O2823      C2830   1.284       .  A
O2824      C2831   1.273       .  A
O2825      C2832   1.275       .  A
O2826      C2832   1.274       .  A
C2827      C3077   1.486       .  S
C2829      C2869   1.486       .  S
C2830      C2834   1.509       .  S
C2831      C2850   1.481       .  S
C2832      C2965   1.479       .  S
C2833      C2834   1.417       .  A
C2833      H2840   1.080       .  S
C2834      C2835   1.417   1_556  A
C2835      C2842   1.506       .  S
C2836      C2837   1.411   1_545  A
C2836      H2841   1.083       .  S
C2837      C2838   1.405   1_554  A
C2838      C2839   1.507       .  S
C2839      H2843   1.110       .  S
C2839      H2844   1.110   1_556  S
C2839      H2845   1.110       .  S
C2842      H2846   1.110   1_554  S
C2842      H2847   1.110   1_554  S
C2842      H2848   1.110       .  S
C2849      C2850   1.405       .  A
C2849      C2854   1.405       .  A
C2849      H2856   1.084       .  S
C2850      C2851   1.419       .  A
C2851      C2852   1.400       .  A
C2852      C2853   1.395       .  A
C2852      H2857   1.085       .  S
C2853      C2854   1.412       .  A
C2854      C2855   1.507       .  S
C2855      H2859   1.111       .  S
C2855      H2860   1.110       .  S
C2855      H2861   1.110       .  S
C2858      H2862   1.110       .  S
C2858      H2863   1.110       .  S
C2858      H2864   1.111       .  S
C2865      C2866   1.415       .  A
C2865      C2870   1.409       .  A
C2865      H2872   1.084       .  S
C2866      C2867   1.420       .  A
C2867      C2868   1.407       .  A
C2867      C2874   1.508       .  S
C2868      C2869   1.405       .  A
C2868      H2873   1.085       .  S
C2869      C2870   1.409       .  A
C2870      C2871   1.506       .  S
C2871      H2875   1.111       .  S
C2871      H2876   1.110       .  S
C2871      H2877   1.110       .  S
C2874      H2879   1.110       .  S
C2881      C2882   1.410       .  A
C2881      C2886   1.412   1_656  A
C2881      H2888   1.084       .  S
C2883      C2884   1.408   1_556  A
C2883      C2890   1.508       .  S
C2884      C2885   1.407       .  A
C2884      H2889   1.084       .  S
C2886      C2887   1.508       .  S
C2887      H2891   1.111       .  S
C2887      H2892   1.110       .  S
C2887      H2893   1.109       .  S
C2890      H2894   1.111       .  S
C2890      H2895   1.110       .  S
C2890      H2896   1.111       .  S
C2897      C2898   1.402       .  A
C2897      C2902   1.406       .  A
C2897      H2904   1.085       .  S
C2898      C2899   1.405       .  A
C2899      C2900   1.403       .  A
C2899      C2906   1.506       .  S
C2900      C2901   1.411       .  A
C2900      H2905   1.083       .  S
C2901      C2902   1.419       .  A
C2902      C2903   1.508       .  S
C2903      H2907   1.111       .  S
C2903      H2908   1.110       .  S
C2903      H2909   1.110       .  S
C2906      H2911   1.110       .  S
C2906      H2912   1.111       .  S
C2913      C2914   1.400       .  A
C2913      C2918   1.401       .  A
C2913      H2920   1.083       .  S
C2914      C2915   1.417       .  A
C2915      C2916   1.405       .  A
C2915      C2922   1.508       .  S
C2916      C2917   1.401       .  A
C2916      H2921   1.083       .  S
C2917      C2918   1.415       .  A
C2918      C2919   1.509       .  S
C2919      H2923   1.111       .  S
C2919      H2924   1.109       .  S
C2919      H2925   1.110       .  S
C2922      H2926   1.108       .  S
C2922      H2927   1.110   1_565  S
C2922      H2928   1.111   1_565  S
C2929      C2930   1.412       .  A
C2929      C2934   1.401       .  A
C2929      H2936   1.082       .  S
C2930      C2931   1.416       .  A
C2931      C2932   1.407       .  A
C2931      C2938   1.507       .  S
C2932      C2933   1.409       .  A
C2932      H2937   1.084       .  S
C2933      C2934   1.411       .  A
C2934      C2935   1.509       .  S
C2935      H2939   1.111       .  S
C2935      H2940   1.109       .  S
C2935      H2941   1.111       .  S
C2938      H2942   1.110       .  S
C2938      H2943   1.110       .  S
C2938      H2944   1.111       .  S
C2945      C2946   1.406       .  A
C2945      C2950   1.402       .  A
C2945      H2952   1.084       .  S
C2946      C2947   1.412       .  A
C2947      C2948   1.400       .  A
C2947      C2954   1.508       .  S
C2948      C2949   1.401       .  A
C2948      H2953   1.085       .  S
C2949      C2950   1.407       .  A
C2951      H2955   1.111       .  S
C2951      H2956   1.110       .  S
C2951      H2957   1.110       .  S
C2954      H2958   1.109       .  S
C2954      H2959   1.110       .  S
C2954      H2960   1.111       .  S
C2961      C2962   1.406       .  A
C2961      C2966   1.407       .  A
C2961      H2968   1.085       .  S
C2962      C2963   1.410       .  A
C2963      C2964   1.398       .  A
C2963      C2970   1.508       .  S
C2964      C2965   1.405       .  A
C2964      H2969   1.085       .  S
C2965      C2966   1.413       .  A
C2966      C2967   1.506       .  S
C2967      H2971   1.111       .  S
C2967      H2972   1.110       .  S
C2967      H2973   1.110       .  S
C2970      H2974   1.110       .  S
C2970      H2975   1.111       .  S
C2970      H2976   1.111       .  S
C2977      C2978   1.401       .  A
C2977      C2982   1.398       .  A
C2977      H2984   1.084       .  S
C2978      C2979   1.423       .  A
C2979      C2980   1.405       .  A
C2979      C2986   1.509       .  S
C2980      C2981   1.397       .  A
C2980      H2985   1.084       .  S
C2981      C2982   1.413       .  A
C2982      C2983   1.507       .  S
C2983      H2987   1.111       .  S
C2983      H2988   1.110       .  S
C2983      H2989   1.106       .  S
C2986      H2992   1.111       .  S
C2993      C2994   1.401       .  A
C2993      C2998   1.396       .  A
C2993      H3000   1.085       .  S
C2994      C2995   1.409       .  A
C2995      C2996   1.404       .  A
C2996      C2997   1.405       .  A
C2996      H3001   1.085       .  S
C2997      C2998   1.411       .  A
C2998      C2999   1.508       .  S
C2999      H3003   1.111       .  S
C2999      H3004   1.108       .  S
C2999      H3005   1.110       .  S
C3002      H3006   1.109       .  S
C3002      H3007   1.110       .  S
C3002      H3008   1.111       .  S
C3009      C3010   1.416       .  A
C3009      C3014   1.408       .  A
C3009      H3016   1.083       .  S
C3010      C3011   1.420       .  A
C3011      C3012   1.406       .  A
C3011      C3018   1.508       .  S
C3012      C3013   1.405       .  A
C3012      H3017   1.084       .  S
C3013      C3014   1.408       .  A
C3014      C3015   1.506       .  S
C3015      H3019   1.111       .  S
C3015      H3020   1.110       .  S
C3015      H3021   1.110       .  S
C3018      H3022   1.110       .  S
C3018      H3023   1.110       .  S
C3018      H3024   1.111       .  S
C3025      C3026   1.399       .  A
C3025      C3030   1.401       .  A
C3025      H3032   1.085       .  S
C3026      C3027   1.418       .  A
C3027      C3028   1.405       .  A
C3027      C3034   1.509       .  S
C3028      C3029   1.404       .  A
C3028      H3033   1.084       .  S
C3029      C3030   1.424       .  A
C3030      C3031   1.510       .  S
C3031      H3035   1.111       .  S
C3031      H3036   1.110       .  S
C3031      H3037   1.110       .  S
C3034      H3038   1.109       .  S
C3034      H3039   1.110       .  S
C3041      C3042   1.398       .  A
C3041      C3046   1.404       .  A
C3041      H3048   1.085       .  S
C3042      C3043   1.413       .  A
C3043      C3044   1.400       .  A
C3043      C3050   1.508       .  S
C3044      C3045   1.399       .  A
C3044      H3049   1.085       .  S
C3045      C3046   1.417       .  A
C3047      H3052   1.110       .  S
C3047      H3053   1.110   1_545  S
C3050      H3054   1.110       .  S
C3050      H3055   1.107       .  S
C3050      H3056   1.111       .  S
C3057      C3058   1.408       .  A
C3057      C3062   1.409   1_556  A
C3057      H3064   1.084       .  S
C3058      C3059   1.420       .  A
C3059      C3060   1.410   1_556  A
C3059      C3066   1.508       .  S
C3060      C3061   1.406       .  A
C3060      H3065   1.084       .  S
C3061      C3062   1.419       .  A
C3062      C3063   1.509       .  S
C3063      H3067   1.111       .  S
C3063      H3068   1.110       .  S
C3063      H3069   1.109       .  S
C3066      H3070   1.111       .  S
C3066      H3071   1.110       .  S
C3066      H3072   1.111       .  S
C3073      C3074   1.410       .  A
C3073      C3078   1.410       .  A
C3073      H3080   1.084       .  S
C3074      C3075   1.419       .  A
C3075      C3076   1.401       .  A
C3075      C3082   1.510       .  S
C3076      C3077   1.403       .  A
C3076      H3081   1.085       .  S
C3077      C3078   1.414       .  A
C3078      C3079   1.506       .  S
C3079      H3083   1.111       .  S
C3079      H3084   1.110       .  S
C3079      H3085   1.110       .  S
C3082      H3086   1.110       .  S
C3082      H3087   1.109       .  S
C3082      H3088   1.111       .  S
C3089      C3090   1.406       .  A
C3089      H3096   1.084       .  S
C3090      C3091   1.416       .  A
C3091      C3098   1.505       .  S
C3092      C3093   1.413       .  A
C3092      H3097   1.084       .  S
C3093      C3094   1.419       .  A
C3094      C3095   1.510       .  S
C3095      H3099   1.111       .  S
C3095      H3100   1.111       .  S
C3095      H3101   1.110       .  S
C3098      H3102   1.110       .  S
C3098      H3103   1.110       .  S
C3098      H3104   1.111       .  S
C3105      C3106   1.402       .  A
C3105      C3110   1.406       .  A
C3105      H3112   1.084       .  S
C3106      C3107   1.425       .  A
C3107      C3108   1.409       .  A
C3107      C3114   1.509       .  S
C3108      C3109   1.401       .  A
C3108      H3113   1.084       .  S
C3109      C3110   1.424       .  A
C3110      C3111   1.511       .  S
C3111      H3115   1.111       .  S
C3111      H3116   1.111       .  S
C3111      H3117   1.109       .  S
C3114      H3118   1.109       .  S
C3114      H3119   1.110       .  S
C3114      H3120   1.111       .  S
C3121      C3122   1.411       .  A
C3121      C3126   1.404       .  A
C3121      H3128   1.083       .  S
C3122      C3123   1.419       .  A
C3123      C3124   1.409       .  A
C3123      C3130   1.507       .  S
C3124      C3125   1.405       .  A
C3124      H3129   1.084       .  S
C3125      C3126   1.407       .  A
C3126      C3127   1.507       .  S
C3127      H3131   1.111       .  S
C3127      H3132   1.110       .  S
C3127      H3133   1.111       .  S
C3130      H3134   1.110       .  S
C3130      H3135   1.110       .  S
C3130      H3136   1.111       .  S
C3137      C3138   1.406       .  A
C3137      C3142   1.400       .  A
C3137      H3144   1.085       .  S
C3138      C3139   1.417       .  A
C3139      C3140   1.413       .  A
C3139      C3146   1.505       .  S
C3140      C3141   1.405       .  A
C3140      H3145   1.084       .  S
C3141      C3142   1.411       .  A
C3142      C3143   1.509       .  S
C3143      H3147   1.111       .  S
C3143      H3148   1.110       .  S
C3143      H3149   1.110       .  S
C3146      H3150   1.110       .  S
C3146      H3151   1.110       .  S
C3146      H3152   1.111       .  S
C3153      C3154   1.405       .  A
C3153      C3158   1.406       .  A
C3153      H3160   1.085       .  S
C3154      C3155   1.423       .  A
C3155      C3156   1.401       .  A
C3155      C3162   1.510       .  S
C3156      C3157   1.396       .  A
C3156      H3161   1.085       .  S
C3157      C3158   1.413       .  A
C3159      H3164   1.110       .  S
C3159      H3165   1.110       .  S
C3162      H3166   1.110       .  S
C3162      H3167   1.109       .  S
C3162      H3168   1.111       .  S
C3169      C3170   1.406       .  A
C3169      H3176   1.084       .  S
C3170      C3171   1.412       .  A
C3171      C3178   1.506       .  S
C3172      C3173   1.415       .  A
C3172      H3177   1.083       .  S
C3173      C3174   1.420       .  A
C3174      C3175   1.509       .  S
C3175      H3179   1.111       .  S
C3175      H3180   1.110       .  S
C3175      H3181   1.110       .  S
C3178      H3182   1.110       .  S
C3178      H3183   1.110       .  S
C3178      H3184   1.111       .  S
C3185      C3186   1.399       .  A
C3185      C3190   1.405       .  A
C3185      H3192   1.083       .  S
C3186      C3187   1.414       .  A
C3187      C3188   1.396       .  A
C3187      C3194   1.508       .  S
C3188      C3189   1.398       .  A
C3188      H3193   1.084       .  S
C3189      C3190   1.417       .  A
C3190      C3191   1.507       .  S
C3191      H3195   1.111       .  S
C3191      H3196   1.110       .  S
C3191      H3197   1.111       .  S
C3194      H3198   1.110       .  S
C3194      H3199   1.107       .  S
C3194      H3200   1.111       .  S
C3201      C3202   1.403       .  A
C3201      C3206   1.405       .  A
C3201      H3208   1.084       .  S
C3202      C3203   1.427       .  A
C3203      C3204   1.403       .  A
C3203      C3210   1.511       .  S
C3204      C3205   1.401       .  A
C3204      H3209   1.084       .  S
C3205      C3206   1.426       .  A
C3206      C3207   1.511       .  S
C3207      H3211   1.111       .  S
C3207      H3212   1.110       .  S
C3207      H3213   1.111       .  S
C3210      H3214   1.110       .  S
C3210      H3215   1.110       .  S
C3210      H3216   1.111       .  S
C3217      C3218   1.404       .  A
C3217      C3222   1.409       .  A
C3217      H3224   1.084       .  S
C3218      C3219   1.425       .  A
C3219      C3220   1.402       .  A
C3219      C3226   1.511       .  S
C3220      C3221   1.402       .  A
C3220      H3225   1.084       .  S
C3221      C3222   1.426       .  A
C3222      C3223   1.510       .  S
C3223      H3227   1.111       .  S
C3223      H3228   1.110       .  S
C3223      H3229   1.110       .  S
C3226      H3230   1.111       .  S
C3226      H3231   1.110       .  S
C3226      H3232   1.111       .  S
C3233      C3234   1.408       .  A
C3233      C3238   1.403       .  A
C3233      H3240   1.084       .  S
C3234      C3235   1.417       .  A
C3235      C3236   1.406       .  A
C3235      C3242   1.508       .  S
C3236      C3237   1.405       .  A
C3236      H3241   1.084       .  S
C3237      C3238   1.411       .  A
C3238      C3239   1.508       .  S
C3239      H3243   1.111       .  S
C3239      H3244   1.110       .  S
C3239      H3245   1.111       .  S
C3242      H3246   1.109       .  S
C3242      H3247   1.110       .  S
C3242      H3248   1.111       .  S
C3249      C3250   1.407       .  A
C3249      C3254   1.402       .  A
C3249      H3256   1.084       .  S
C3250      C3251   1.413       .  A
C3251      C3252   1.409       .  A
C3251      C3258   1.506       .  S
C3252      C3253   1.405       .  A
C3252      H3257   1.084       .  S
C3253      C3254   1.407       .  A
C3254      C3255   1.506       .  S
C3255      H3259   1.111       .  S
C3255      H3260   1.110       .  S
C3255      H3261   1.110       .  S
C3258      H3262   1.110       .  S
C3258      H3263   1.111       .  S
C3258      H3264   1.111       .  S
C3265      C3266   1.407       .  A
C3265      C3270   1.408       .  A
C3265      H3272   1.084       .  S
C3266      C3267   1.423       .  A
C3267      C3268   1.404       .  A
C3267      C3274   1.510       .  S
C3268      C3269   1.399       .  A
C3268      H3273   1.085       .  S
C3269      C3270   1.414       .  A
C3271      H3275   1.111       .  S
C3271      H3276   1.110       .  S
C3271      H3277   1.111       .  S
C3274      H3278   1.110       .  S
C3274      H3280   1.111       .  S
C3281      C3282   1.407       .  A
C3281      C3286   1.414       .  A
C3281      H3288   1.084       .  S
C3282      C3283   1.409       .  A
C3283      C3284   1.401       .  A
C3284      C3285   1.409       .  A
C3284      H3289   1.084       .  S
C3285      C3286   1.420       .  A
C3286      C3287   1.507       .  S
C3287      H3291   1.110       .  S
C3287      H3292   1.104       .  S
C3287      H3293   1.110       .  S
C3290      H3294   1.110       .  S
C3290      H3295   1.110       .  S
C3290      H3296   1.111       .  S
C3297      C3298   1.410       .  A
C3297      C3302   1.403       .  A
C3297      H3304   1.085       .  S
C3298      C3299   1.419       .  A
C3299      C3300   1.409       .  A
C3299      C3306   1.507       .  S
C3300      C3301   1.406       .  A
C3300      H3305   1.085       .  S
C3301      C3302   1.411       .  A
C3302      C3303   1.507       .  S
C3303      H3307   1.111       .  S
C3303      H3308   1.110       .  S
C3303      H3309   1.109       .  S
C3306      H3310   1.110       .  S
C3306      H3311   1.110       .  S
C3306      H3312   1.109       .  S
C3313      C3314   1.405       .  A
C3313      C3318   1.398       .  A
C3313      H3320   1.085       .  S
C3314      C3315   1.414       .  A
C3315      C3316   1.410       .  A
C3315      C3322   1.506       .  S
C3316      C3317   1.408       .  A
C3316      H3321   1.085       .  S
C3317      C3318   1.413       .  A
C3318      C3319   1.510       .  S
C3319      H3323   1.111       .  S
C3319      H3324   1.110       .  S
C3319      H3325   1.109       .  S
C3322      H3326   1.110       .  S
C3322      H3327   1.110       .  S
C3322      H3328   1.111       .  S
C3329      C3330   1.412       .  A
C3329      C3334   1.408       .  A
C3329      H3336   1.084       .  S
C3330      C3331   1.409       .  A
C3331      C3332   1.407       .  A
C3331      C3338   1.507       .  S
C3332      C3333   1.414       .  A
C3332      H3337   1.084       .  S
C3333      C3334   1.411       .  A
C3334      C3335   1.506       .  S
C3335      H3339   1.110       .  S
C3335      H3340   1.110       .  S
C3335      H3341   1.110       .  S
C3338      H3342   1.110       .  S
C3338      H3343   1.110       .  S
C3338      H3344   1.110       .  S
C3345      C3346   1.404       .  A
C3345      C3350   1.406       .  A
C3345      H3352   1.086       .  S
C3346      C3347   1.404       .  A
C3347      C3348   1.403       .  A
C3347      C3354   1.506       .  S
C3348      C3349   1.411       .  A
C3348      H3353   1.085       .  S
C3349      C3350   1.417       .  A
C3350      C3351   1.508       .  S
C3351      H3355   1.111       .  S
C3351      H3356   1.110       .  S
C3351      H3357   1.110       .  S
C3354      H3359   1.110       .  S
C3354      H3360   1.111       .  S
C3361      C3362   1.402       .  A
C3361      C3366   1.406       .  A
C3361      H3368   1.084       .  S
C3362      C3363   1.418       .  A
C3363      C3364   1.403       .  A
C3363      C3370   1.509       .  S
C3364      C3365   1.400       .  A
C3364      H3369   1.085       .  S
C3365      C3366   1.416       .  A
C3366      C3367   1.508       .  S
C3367      H3371   1.111       .  S
C3367      H3372   1.109       .  S
C3367      H3373   1.110       .  S
C3370      H3374   1.109       .  S
C3370      H3375   1.110       .  S
C3370      H3376   1.111       .  S
C3377      C3378   1.403       .  A
C3377      C3382   1.400       .  A
C3377      H3384   1.085       .  S
C3378      C3379   1.408       .  A
C3379      C3380   1.399       .  A
C3379      C3386   1.507       .  S
C3380      C3381   1.403       .  A
C3380      H3385   1.085       .  S
C3381      C3382   1.410       .  A
C3382      C3383   1.507       .  S
C3383      H3387   1.110       .  S
C3383      H3388   1.109       .  S
C3383      H3389   1.110       .  S
C3386      H3390   1.109       .  S
C3386      H3391   1.110       .  S
C3386      H3392   1.111       .  S
C3393      C3394   1.405       .  A
C3393      C3398   1.398       .  A
C3393      H3400   1.085       .  S
C3394      C3395   1.410       .  A
C3395      C3396   1.405       .  A
C3395      C3402   1.506       .  S
C3396      C3397   1.410       .  A
C3396      H3401   1.085       .  S
C3397      C3398   1.415       .  A
C3399      H3403   1.111       .  S
C3399      H3404   1.110       .  S
C3399      H3405   1.111       .  S
C3402      H3406   1.110       .  S
C3402      H3407   1.111       .  S
C3402      H3408   1.111       .  S
