geometry optimzed in LAMMPS
_audit_creation_date              2020-12-01 
_audit_creation_method            'lammps2cif' 
_symmetry_space_group_name_H-M    'P1' 
_symmetry_Int_Tables_number       1 
_symmetry_cell_setting            triclinic 
loop_ 
_symmetry_equiv_pos_as_xyz 
  x,y,z 
_cell_length_a                    57.03131218 
_cell_length_b                    57.07055555788097 
_cell_length_c                    57.69282576559399 
_cell_angle_alpha                 90.1465657910274 
_cell_angle_beta                  89.803576421697 
_cell_angle_gamma                 121.48532970963979 
loop_ 
_atom_site_label 
_atom_site_type_symbol 
_atom_site_fract_x 
_atom_site_fract_y 
_atom_site_fract_z 
_atom_site_charge 
Fe1        Fe  0.58354745  0.14074762  0.19978313     1.65800
Fe2        Fe  0.62535923  0.19790500  0.23157797     1.73200
Fe3        Fe  0.65292957  0.16514016  0.20408881     1.54400
O4          O  0.63204697  0.12294130  0.21065838    -0.81100
O5          O  0.65514629  0.22687423  0.21040040    -0.79400
O6          O  0.58745162  0.10841906  0.20986185    -0.83600
O7          O  0.59791935  0.14088466  0.16653231    -0.78500
O8          O  0.66724918  0.17082197  0.23758276    -0.80200
O9          O  0.59704428  0.20283597  0.21431666    -0.83000
C10         C  0.62155953  0.14980579  0.15771163     0.97800
C11         C  0.60690711  0.10412213  0.21312686     1.05200
O12         O  0.62058280  0.16783717  0.21174880    -1.12000
O13         O  0.59554417  0.17135514  0.25414358    -0.74400
O14         O  0.56438252  0.13775684  0.23155720    -0.77900
O15         O  0.64321618  0.15930878  0.16964625    -0.78600
C16         C  0.57170521  0.15046350  0.25086625     0.96700
O17         O  0.57454022  0.16965398  0.18860390    -0.76500
O18         O  0.65442206  0.19814317  0.25264106    -0.81700
C19         C  0.67482668  0.22809184  0.19912564     0.99300
C20         C  0.66785001  0.18620147  0.25363879     1.05200
O21         O  0.67756861  0.20735890  0.19684278    -0.77400
C22         C  0.57926047  0.19153494  0.19847970     1.03500
Fe23       Fe  0.78546941  0.27452222  0.44926873     1.65800
Fe24       Fe  0.77507075  0.31605438  0.41395218     1.73200
Fe25       Fe  0.83551723  0.34317749  0.44352041     1.54400
O26         O  0.83008285  0.33447398  0.47820418    -0.81100
O27         O  0.80670887  0.34170842  0.39223929    -0.79400
O28         O  0.79895980  0.28999657  0.48207094    -0.83600
O29         O  0.82183219  0.27664106  0.44152523    -0.78500
O30         O  0.82021084  0.36902515  0.44916458    -0.80200
O31         O  0.76879416  0.28367108  0.39382749    -0.83000
C32         C  0.84663432  0.29556890  0.43796424     0.97800
C33         C  0.81592546  0.31337223  0.49056475     1.05200
O34         O  0.79872984  0.31125239  0.43562112    -1.12000
O35         O  0.73945875  0.29131825  0.43226389    -0.74400
O36         O  0.74721981  0.26777722  0.45852501    -0.77900
O37         O  0.85467638  0.32095155  0.43877325    -0.78600
C38         C  0.73169083  0.27477655  0.44913763     0.96700
O39         O  0.76985239  0.25388411  0.41821984    -0.76500
O40         O  0.77901576  0.34879104  0.43207416    -0.81700
C41         C  0.83273782  0.35576708  0.39239322     0.99300
C42         C  0.79785867  0.36782980  0.44416365     1.05200
O43         O  0.84650675  0.35672548  0.40985943    -0.77400
C44         C  0.76550639  0.26043381  0.39840272     1.03500
Fe45       Fe  0.71397740  0.53252889  0.45852062     1.65800
Fe46       Fe  0.67426581  0.47880664  0.42218832     1.73200
Fe47       Fe  0.64627187  0.51163022  0.44954239     1.54400
O48         O  0.65472556  0.51931773  0.48437372    -0.81100
O49         O  0.65307463  0.48612141  0.39751684    -0.79400
O50         O  0.69648143  0.52688864  0.49104500    -0.83600
O51         O  0.71138298  0.56660718  0.45182566    -0.78500
O52         O  0.62124291  0.47052275  0.45803677    -0.80200
O53         O  0.70940547  0.50526380  0.40458125    -0.83000
C54         C  0.69367724  0.57155518  0.44396027     0.97800
C55         C  0.67372255  0.52325754  0.49808752     1.05200
O56         O  0.67818196  0.50759890  0.44344861    -1.12000
O57         O  0.69514445  0.46696110  0.44326209    -0.74400
O58         O  0.72171806  0.50180300  0.46665899    -0.77900
O59         O  0.66857708  0.55284592  0.44148064    -0.78600
C60         C  0.71298199  0.47770351  0.45912372     0.96700
O61         O  0.73570605  0.54097964  0.42773054    -0.76500
O62         O  0.63855248  0.44948633  0.43778048    -0.81700
C63         C  0.63679858  0.49483583  0.39751825     0.99300
C64         C  0.62084418  0.44906616  0.45142668     1.05200
O65         O  0.63212421  0.50432558  0.41567188    -0.77400
C66         C  0.73107874  0.52810161  0.40871000     1.03500
Fe67       Fe  0.50354704  0.39387730  0.21144239     1.65800
Fe68       Fe  0.51950853  0.35091382  0.23789794     1.73200
Fe69       Fe  0.45602142  0.32450560  0.21337326     1.54400
O70         O  0.43530913  0.34358425  0.22412299    -0.81100
O71         O  0.51226768  0.31803741  0.21826144    -0.79400
O72         O  0.46491560  0.38777395  0.21704357    -0.83600
O73         O  0.49434849  0.38124644  0.17726283    -0.78500
O74         O  0.44932666  0.30755340  0.24625624    -0.80200
O75         O  0.55164874  0.37462177  0.21594002    -0.83000
C76         C  0.47609273  0.35885825  0.16788747     0.97800
C77         C  0.44116939  0.36821287  0.22264134     1.05200
O78         O  0.49291538  0.35637022  0.22099993    -1.12000
O79         O  0.53003154  0.38359376  0.25952867    -0.74400
O80         O  0.51391062  0.40873332  0.24515404    -0.77900
O81         O  0.45902906  0.33781028  0.17955215    -0.78600
C82         C  0.52542872  0.40300086  0.26119503     0.96700
O83         O  0.54434151  0.40723976  0.20419065    -0.76500
O84         O  0.49095590  0.32599924  0.26199291    -0.81700
C85         C  0.49334614  0.30079202  0.20514935     0.99300
C86         C  0.46506357  0.31031093  0.26290691     1.05200
O87         O  0.47135560  0.30066463  0.20149584    -0.77400
C88         C  0.55953221  0.39725826  0.20605200     1.03500
Fe89       Fe  0.44312393  0.19549191  0.45796973     1.65800
Fe90       Fe  0.49822250  0.21601693  0.42204217     1.73200
Fe91       Fe  0.46669832  0.15191176  0.44614243     1.54400
O92         O  0.46033092  0.15085281  0.48157497    -0.81100
O93         O  0.49315610  0.18890609  0.39618905    -0.79400
O94         O  0.44551546  0.17932491  0.48913715    -0.83600
O95         O  0.41010073  0.15866128  0.44761675    -0.78500
O96         O  0.50904427  0.17029562  0.45240711    -0.80200
O97         O  0.47122352  0.22300283  0.40472095    -0.83000
C98         C  0.40563764  0.13558161  0.44068255     0.97800
C99         C  0.45200141  0.16222630  0.49549192     1.05200
O100        O  0.46942086  0.18780600  0.44217832    -1.12000
O101        O  0.50769971  0.24738195  0.44489930    -0.74400
O102        O  0.47320586  0.23368318  0.46995837    -0.77900
O103        O  0.42448864  0.12996967  0.43968934    -0.78600
C104        C  0.49661991  0.25165086  0.46215767     0.96700
O105        O  0.43656894  0.21264137  0.42892045    -0.76500
O106        O  0.52860447  0.21224795  0.43682250    -0.81700
C107        C  0.48361498  0.16334666  0.39432166     0.99300
C108        C  0.53011465  0.19352395  0.44710308     1.05200
O109        O  0.47245458  0.14722163  0.41132445    -0.77400
C110        C  0.44894240  0.22165346  0.40973636     1.03500
Fe111      Fe  0.84873754  0.48310360  0.20812929     1.65800
Fe112      Fe  0.79147588  0.46137796  0.24078144     1.73200
Fe113      Fe  0.81731340  0.52073463  0.20997809     1.54400
O114        O  0.85871374  0.54782506  0.21759390    -0.81100
O115        O  0.76025958  0.45648239  0.22017794    -0.79400
O116        O  0.87784102  0.52206735  0.21867535    -0.83600
O117        O  0.84853669  0.49621397  0.17458171    -0.78500
O118        O  0.80882806  0.52919281  0.24246738    -0.80200
O119        O  0.78955941  0.42844633  0.22428431    -0.83000
C120        C  0.83844271  0.50887955  0.16485466     0.97800
C121        C  0.87882833  0.54462760  0.22158079     1.05200
O122        O  0.81915445  0.48847382  0.21948954    -1.12000
O123        O  0.82051982  0.46433018  0.26323512    -0.74400
O124        O  0.85373967  0.46916309  0.23997401    -0.77900
O125        O  0.82567641  0.51787579  0.17604136    -0.78600
C126        C  0.84243255  0.46423926  0.25980818     0.96700
O127        O  0.82193756  0.44308878  0.19714628    -0.76500
O128        O  0.78852903  0.48930633  0.26095832    -0.81700
C129        C  0.75643378  0.47155909  0.20662703     0.99300
C130        C  0.79629915  0.51441467  0.25978491     1.05200
O131        O  0.77547597  0.49616836  0.20184652    -0.77400
C132        C  0.80112415  0.42390543  0.20760638     1.03500
Fe133      Fe  0.44248535  0.26972297  0.95721833     1.65800
Fe134      Fe  0.49204071  0.30719359  0.91670676     1.73200
Fe135      Fe  0.46486858  0.33766063  0.94859187     1.54400
O136        O  0.42329746  0.31671162  0.94281316    -0.81100
O137        O  0.52412964  0.34302212  0.93068867    -0.79400
O138        O  0.40872497  0.27411222  0.95490904    -0.83600
O139        O  0.45329691  0.28810949  0.98970233    -0.78500
O140        O  0.46990103  0.35232009  0.91516225    -0.80200
O141        O  0.50539157  0.28588160  0.93567458    -0.83000
C142        C  0.45777064  0.31098251  0.99721254     0.97800
C143        C  0.40426536  0.29218740  0.94699968     1.05200
O144        O  0.46651210  0.30479946  0.94080707    -1.12000
O145        O  0.46241682  0.27172576  0.90072106    -0.74400
O146        O  0.42916693  0.24716645  0.92655700    -0.77900
O147        O  0.45972737  0.32923358  0.98350124    -0.78600
C148        C  0.43946487  0.25080651  0.90633961     0.96700
O149        O  0.47275205  0.26026082  0.96117536    -0.76500
O150        O  0.48246243  0.32842394  0.89367046    -0.81700
C151        C  0.52693189  0.36077655  0.94563336     0.99300
C152        C  0.47591078  0.34631818  0.89584154     1.05200
O153        O  0.50663488  0.36098540  0.95450158    -0.77400
C154        C  0.49556689  0.26774677  0.95143200     1.03500
Fe155      Fe  0.57452681  0.46056223  0.70460958     1.65800
Fe156      Fe  0.61051289  0.44403881  0.74130887     1.73200
Fe157      Fe  0.64188888  0.50849655  0.71762277     1.54400
O158        O  0.63841531  0.50792797  0.68210262    -0.81100
O159        O  0.63140697  0.47175399  0.76747622    -0.79400
O160        O  0.59496916  0.47722367  0.67352744    -0.83600
O161        O  0.57637306  0.49614827  0.71417333    -0.78500
O162        O  0.66805754  0.49392565  0.71242250    -0.80200
O163        O  0.57450837  0.43332273  0.75797502    -0.83000
C164        C  0.59458379  0.52024767  0.72022722     0.97800
C165        C  0.61953548  0.49442261  0.66743372     1.05200
O166        O  0.60894500  0.47107458  0.72126603    -1.12000
O167        O  0.59004809  0.41232789  0.71806146    -0.74400
O168        O  0.56815234  0.42347648  0.69296101    -0.77900
O169        O  0.61975842  0.52773154  0.72212707    -0.78600
C170        C  0.57471422  0.40688961  0.70050835     0.96700
O171        O  0.54955371  0.44181840  0.73357429    -0.76500
O172        O  0.64647282  0.45138868  0.72677247    -0.81700
C173        C  0.64572950  0.49765340  0.76954025     0.99300
C174        C  0.66659412  0.47134780  0.71645456     1.05200
O175        O  0.65035113  0.51378668  0.75270486    -0.77400
C176        C  0.55252331  0.43233498  0.75254732     1.03500
Fe177      Fe  0.48964324  0.12578403  0.70576767     1.65800
Fe178      Fe  0.50813576  0.18016721  0.74111742     1.73200
Fe179      Fe  0.44626910  0.14902305  0.71452540     1.54400
O180        O  0.44306595  0.13472327  0.68069587    -0.81100
O181        O  0.47985986  0.17241960  0.76639949    -0.79400
O182        O  0.48125401  0.13480845  0.67354529    -0.83600
O183        O  0.44951300  0.09338749  0.71030905    -0.78500
O184        O  0.46650049  0.18854993  0.70161224    -0.80200
O185        O  0.51586130  0.15322423  0.75808566    -0.83000
C186        C  0.42895284  0.08995106  0.72195571     0.97800
C187        C  0.45992926  0.13417273  0.66656555     1.05200
O188        O  0.48151847  0.15173070  0.72054987    -1.12000
O189        O  0.54045786  0.19190481  0.71900983    -0.74400
O190        O  0.53100010  0.15437993  0.69962792    -0.77900
O191        O  0.42537025  0.10946532  0.72741635    -0.78600
C192        C  0.54754139  0.17911193  0.70559289     0.96700
O193        O  0.49903470  0.11487305  0.73692783    -0.76500
O194        O  0.50253327  0.20952021  0.72576306    -0.81700
C195        C  0.45700952  0.17080453  0.76542241     0.99300
C196        C  0.48762110  0.20994844  0.70959645     1.05200
O197        O  0.44288364  0.16360225  0.74694309    -0.77400
C198        C  0.50997176  0.12863065  0.75525315     1.03500
Fe199      Fe  0.70077234  0.18927948  0.94673302     1.65800
Fe200      Fe  0.66419855  0.20526732  0.91050783     1.73200
Fe201      Fe  0.63150628  0.14381163  0.93839696     1.54400
O202        O  0.65097394  0.12130566  0.93558956    -0.81100
O203        O  0.63334357  0.20518194  0.92866872    -0.79400
O204        O  0.69566042  0.15170717  0.93933043    -0.83600
O205        O  0.68288529  0.17626941  0.97918841    -0.78500
O206        O  0.62090336  0.13462519  0.90402133    -0.80200
O207        O  0.69212127  0.23987740  0.92856348    -0.83000
C208        C  0.65845706  0.16108541  0.98666899     0.97800
C209        C  0.67588020  0.12742982  0.93559797     1.05200
O210        O  0.66548135  0.17942983  0.93201884    -1.12000
O211        O  0.69480482  0.20706936  0.89066313    -0.74400
O212        O  0.72252948  0.20334004  0.91572203    -0.77900
O213        O  0.63777069  0.14852897  0.97347478    -0.78600
C214        C  0.71674763  0.20755683  0.89544714     0.96700
O215        O  0.71134238  0.22868427  0.95599544    -0.76500
O216        O  0.63593254  0.17540723  0.88855899    -0.81700
C217        C  0.61164650  0.18589413  0.93794139     0.99300
C218        C  0.62167978  0.14941703  0.88743727     1.05200
O219        O  0.60767519  0.16202267  0.94167073    -0.77400
C220        C  0.70819210  0.24639922  0.94571655     1.03500
Fe221      Fe  0.83638163  0.39344100  0.69976222     1.65800
Fe222      Fe  0.78278601  0.35650942  0.73626909     1.73200
Fe223      Fe  0.81201422  0.32519680  0.70970872     1.54400
O224        O  0.81163040  0.32933443  0.67453010    -0.81100
O225        O  0.78390736  0.32895306  0.75852180    -0.79400
O226        O  0.83352770  0.37451945  0.66823626    -0.83600
O227        O  0.86942199  0.39091619  0.70944732    -0.78500
O228        O  0.76935165  0.29953845  0.70852001    -0.80200
O229        O  0.81234741  0.38770553  0.75603685    -0.83000
C230        C  0.87364201  0.37133636  0.71123018     0.97800
C231        C  0.82223933  0.34988741  0.66105400     1.05200
O232        O  0.81044825  0.35840496  0.71507918    -1.12000
O233        O  0.77662691  0.38350969  0.71757362    -0.74400
O234        O  0.80622814  0.40011270  0.68823412    -0.77900
O235        O  0.85452759  0.34624694  0.71017889    -0.78600
C236        C  0.78557773  0.39728004  0.69903255     0.96700
O237        O  0.84230644  0.41665248  0.72970615    -0.76500
O238        O  0.75159401  0.32515801  0.71793756    -0.81700
C239        C  0.79778753  0.31763147  0.76079537     0.99300
C240        C  0.74921384  0.30313423  0.71046877     1.05200
O241        O  0.81285534  0.31774745  0.74455737    -0.77400
C242        C  0.83279876  0.41085006  0.75028368     1.03500
Fe243      Fe  0.78068888  0.52714155  0.95445563     1.65800
Fe244      Fe  0.76509052  0.46824193  0.92684250     1.73200
Fe245      Fe  0.82983309  0.50978321  0.94737344     1.54400
O246        O  0.84823927  0.55143696  0.93871328    -0.81100
O247        O  0.77115493  0.44427783  0.94908652    -0.79400
O248        O  0.81489403  0.56065930  0.94096742    -0.83600
O249        O  0.79917427  0.53151606  0.98652285    -0.78500
O250        O  0.83508749  0.50296683  0.91306651    -0.80200
O251        O  0.73204575  0.46106693  0.94662044    -0.83000
C252        C  0.81628555  0.52578705  0.99471128     0.97800
C253        C  0.83914793  0.56737980  0.93573798     1.05200
O254        O  0.79192260  0.50181283  0.94301374    -1.12000
O255        O  0.75706189  0.48980770  0.90347348    -0.74400
O256        O  0.76100741  0.52516377  0.92337736    -0.77900
O257        O  0.82871573  0.51735704  0.98210557    -0.78600
C258        C  0.75492229  0.51072528  0.90494664     0.96700
O259        O  0.74418310  0.49712915  0.96911258    -0.76500
O260        O  0.79319362  0.46956057  0.90373783    -0.81700
C261        C  0.79297804  0.44628931  0.95657805     0.99300
C262        C  0.81861314  0.48449076  0.89920745     1.05200
O263        O  0.81632219  0.46871991  0.95591211    -0.77400
C264        C  0.72675016  0.47309227  0.96231238     1.03500
Fe265      Fe  0.24616077  0.45807933  0.53573021     1.65800
Fe266      Fe  0.28398272  0.51065520  0.57329481     1.73200
Fe267      Fe  0.31549733  0.48397447  0.54198311     1.54400
O268        O  0.29576567  0.44140439  0.54517887    -0.81100
O269        O  0.31503720  0.54313149  0.55532288    -0.79400
O270        O  0.25095504  0.42527588  0.54230037    -0.83600
O271        O  0.26267768  0.46351813  0.50253695    -0.78500
O272        O  0.32900815  0.48682184  0.57567399    -0.80200
O273        O  0.25611902  0.51734798  0.55669883    -0.83000
C274        C  0.28668124  0.47286802  0.49435262     0.97800
C275        C  0.27084601  0.42161737  0.54565154     1.05200
O276        O  0.28191576  0.48421500  0.55028593    -1.12000
O277        O  0.25313612  0.48017882  0.59296337    -0.74400
O278        O  0.22474236  0.44947343  0.56700138    -0.77900
O279        O  0.30753049  0.48141983  0.50716318    -0.78600
C280        C  0.23044047  0.45884363  0.58760803     0.96700
O281        O  0.23676287  0.48765166  0.52781571    -0.76500
O282        O  0.31211789  0.50891898  0.59420617    -0.81700
C283        C  0.33524919  0.54639160  0.54330257     0.99300
C284        C  0.32755997  0.49920459  0.59331541     1.05200
O285        O  0.33864151  0.52666454  0.53793185    -0.77400
C286        C  0.24025705  0.50816349  0.53934216     1.03500
Fe287      Fe  0.10598618  0.51855740  0.77901211     1.65800
Fe288      Fe  0.16092143  0.53406389  0.74486977     1.73200
Fe289      Fe  0.12476164  0.47088710  0.77002446     1.54400
O290        O  0.12076632  0.47339916  0.80525535    -0.81100
O291        O  0.15707820  0.50498680  0.72155254    -0.79400
O292        O  0.10584798  0.50203911  0.81072118    -0.83600
O293        O  0.07160428  0.48293139  0.76859205    -0.78500
O294        O  0.16652604  0.48645626  0.77543329    -0.80200
O295        O  0.13472350  0.53931112  0.72443056    -0.83000
C296        C  0.06530550  0.45856091  0.76440315     0.97800
C297        C  0.11265513  0.48559946  0.81838604     1.05200
O298        O  0.13056689  0.50780043  0.76476521    -1.12000
O299        O  0.17029218  0.56792626  0.76478056    -0.74400
O300        O  0.13756550  0.55591097  0.79116770    -0.77900
O301        O  0.08262708  0.45096541  0.76495429    -0.78600
C302        C  0.16068545  0.57326284  0.78247712     0.96700
O303        O  0.10270686  0.53618758  0.74886657    -0.76500
O304        O  0.18910186  0.53027664  0.76365127    -0.81700
C305        C  0.14296264  0.47920674  0.71919168     0.99300
C306        C  0.18844264  0.50984075  0.77294074     1.05200
O307        O  0.12789336  0.46364114  0.73540829    -0.77400
C308        C  0.11381107  0.54084227  0.72897811     1.03500
Fe309      Fe  0.37398511  0.85753806  0.78160996     1.65800
Fe310      Fe  0.33315113  0.79964071  0.75007453     1.73200
Fe311      Fe  0.30565864  0.83486300  0.77315257     1.54400
O312        O  0.31209284  0.83976113  0.80826730    -0.81100
O313        O  0.30753310  0.80144999  0.72587827    -0.79400
O314        O  0.35742363  0.85983461  0.81318198    -0.83600
O315        O  0.37256754  0.89023384  0.76848687    -0.78500
O316        O  0.27839900  0.79309980  0.77936070    -0.80200
O317        O  0.36583328  0.82456438  0.72900696    -0.83000
C318        C  0.35364185  0.89510219  0.76474481     0.97800
C319        C  0.33330344  0.85085875  0.82095813     1.05200
O320        O  0.33763492  0.83071510  0.76835369    -1.12000
O321        O  0.35815663  0.79313792  0.77116758    -0.74400
O322        O  0.37978328  0.82780875  0.79603929    -0.77900
O323        O  0.32836190  0.87690497  0.76741111    -0.78600
C324        C  0.37424631  0.80472952  0.78812577     0.96700
O325        O  0.39570220  0.85853026  0.75194541    -0.76500
O326        O  0.30033133  0.77160510  0.76963147    -0.81700
C327        C  0.29588753  0.81496208  0.72286255     0.99300
C328        C  0.27992754  0.77167782  0.77826584     1.05200
O329        O  0.29555435  0.83041738  0.73850115    -0.77400
C330        C  0.38971040  0.84481130  0.73316306     1.03500
Fe331      Fe  0.16832057  0.72011491  0.53441885     1.65800
Fe332      Fe  0.18488216  0.67982449  0.56518718     1.73200
Fe333      Fe  0.12352439  0.64991011  0.53628938     1.54400
O334        O  0.10040423  0.66724657  0.54489531    -0.81100
O335        O  0.18217163  0.64813391  0.54609578    -0.79400
O336        O  0.12903489  0.71229370  0.54012281    -0.83600
O337        O  0.15957799  0.70692411  0.50027827    -0.78500
O338        O  0.11477707  0.63245870  0.56877334    -0.80200
O339        O  0.21909139  0.70636058  0.54612286    -0.83000
C340        C  0.14274870  0.68400601  0.49087419     0.97800
C341        C  0.10542858  0.69169080  0.54465898     1.05200
O342        O  0.15888858  0.68325862  0.54529480    -1.12000
O343        O  0.19025278  0.71092355  0.58675234    -0.74400
O344        O  0.17841966  0.73707744  0.56756277    -0.77900
O345        O  0.12735604  0.66229297  0.50231738    -0.78600
C346        C  0.18684166  0.73113535  0.58574067     0.96700
O347        O  0.20924038  0.73394827  0.52729676    -0.76500
O348        O  0.15485243  0.65261008  0.58717960    -0.81700
C349        C  0.16451599  0.62951498  0.53287252     0.99300
C350        C  0.12931237  0.63517832  0.58623643     1.05200
O351        O  0.14229389  0.62812581  0.52711348    -0.77400
C352        C  0.22604033  0.72684857  0.53317776     1.03500
Fe353      Fe  0.44302527  0.59794789  0.78284421     1.65800
Fe354      Fe  0.42729506  0.63301792  0.74442858     1.73200
Fe355      Fe  0.48972963  0.66584630  0.77132355     1.54400
O356        O  0.48968738  0.65891503  0.80626906    -0.81100
O357        O  0.45638458  0.65403307  0.71921226    -0.79400
O358        O  0.45429332  0.61748936  0.81458936    -0.83600
O359        O  0.48136535  0.60349926  0.77775699    -0.78500
O360        O  0.47200985  0.68851935  0.77928126    -0.80200
O361        O  0.41847548  0.59688912  0.72852077    -0.83000
C362        C  0.50452696  0.62158899  0.76955993     0.97800
C363        C  0.47425461  0.64076996  0.82078950     1.05200
O364        O  0.45331434  0.63220376  0.76610614    -1.12000
O365        O  0.39399050  0.61208883  0.76618585    -0.74400
O366        O  0.40308482  0.58742419  0.79008034    -0.77900
O367        O  0.51022649  0.64561904  0.76421066    -0.78600
C368        C  0.38701738  0.59462540  0.78228585     0.96700
O369        O  0.43021813  0.57433090  0.75292805    -0.76500
O370        O  0.43328702  0.66908689  0.75846293    -0.81700
C371        C  0.48150963  0.67298403  0.71918099     0.99300
C372        C  0.45035265  0.68741170  0.77231818     1.05200
O373        O  0.49610531  0.67948084  0.73727147    -0.77400
C374        C  0.42048047  0.57641182  0.73381052     1.03500
Fe375      Fe  0.50834395  0.80165800  0.52975346     1.65800
Fe376      Fe  0.45892894  0.78944621  0.56915672     1.73200
Fe377      Fe  0.48970798  0.84942039  0.53871641     1.54400
O378        O  0.53249803  0.86988813  0.54044685    -0.81100
O379        O  0.42781952  0.79113342  0.55344238    -0.79400
O380        O  0.54352965  0.83755386  0.53927109    -0.83600
O381        O  0.50644666  0.81730562  0.49755603    -0.78500
O382        O  0.49082791  0.86047371  0.57297115    -0.80200
O383        O  0.44736728  0.75414636  0.55034894    -0.83000
C384        C  0.49720501  0.83181196  0.48995477     0.97800
C385        C  0.54968103  0.86214991  0.54249736     1.05200
O386        O  0.48558968  0.81355204  0.54577307    -1.12000
O387        O  0.48779322  0.78573095  0.58718095    -0.74400
O388        O  0.51343701  0.78336148  0.55920067    -0.77900
O389        O  0.48914729  0.84376078  0.50344131    -0.78600
C390        C  0.50546357  0.78021757  0.58019775     0.96700
O391        O  0.47486452  0.76443121  0.51968835    -0.76500
O392        O  0.46582954  0.82077992  0.59145451    -0.81700
C393        C  0.42604603  0.80974325  0.54318069     0.99300
C394        C  0.47847306  0.84677468  0.59087369     1.05200
O395        O  0.44707799  0.83257644  0.53701716    -0.77400
C396        C  0.45373144  0.74767525  0.53130764     1.03500
Fe397      Fe  0.24130471  0.80606001  0.02827593     1.65800
Fe398      Fe  0.27329363  0.78565584  0.06596101     1.73200
Fe399      Fe  0.30975124  0.84886599  0.04083184     1.54400
O400        O  0.30391967  0.85105257  0.00557832    -0.81100
O401        O  0.29573429  0.81273312  0.09189989    -0.79400
O402        O  0.26155194  0.81784649  0.99689769    -0.83600
O403        O  0.24883189  0.84497130  0.03506506    -0.78500
O404        O  0.33061633  0.82917264  0.03241599    -0.80200
O405        O  0.23852261  0.77963735  0.08208667    -0.83000
C406        C  0.26759573  0.86673013  0.04475033     0.97800
C407        C  0.28536588  0.83675504  0.99079553     1.05200
O408        O  0.27475634  0.81347097  0.04504244    -1.12000
O409        O  0.25058834  0.75374880  0.04364244    -0.74400
O410        O  0.22872180  0.76590710  0.01939393    -0.77900
O411        O  0.29125574  0.87081412  0.04931111    -0.78600
C412        C  0.23386710  0.74834110  0.02722306     0.96700
O413        O  0.21713630  0.79303192  0.05791851    -0.76500
O414        O  0.30794104  0.78914886  0.05155847    -0.81700
C415        C  0.31511994  0.83745786  0.09287062     0.99300
C416        C  0.32734475  0.80621807  0.03852746     1.05200
O417        O  0.32228003  0.85283393  0.07513781    -0.77400
C418        C  0.21899782  0.78324548  0.07708113     1.03500
Fe419      Fe  0.45261168  0.86995094  0.27637827     1.65800
Fe420      Fe  0.43768502  0.81573511  0.24093625     1.73200
Fe421      Fe  0.49808995  0.84760259  0.27112710     1.54400
O422        O  0.52046413  0.88947112  0.26394559    -0.81100
O423        O  0.44122098  0.78560220  0.25722118    -0.79400
O424        O  0.49108425  0.90386059  0.26916113    -0.83600
O425        O  0.46363746  0.86579730  0.30984816    -0.78500
O426        O  0.50721090  0.84156998  0.23782147    -0.80200
O427        O  0.40355678  0.80422991  0.26112062    -0.83000
C428        C  0.48000180  0.85936305  0.31841936     0.97800
C429        C  0.51468988  0.90818801  0.26387709     1.05200
O430        O  0.46277715  0.84445910  0.26280362    -1.12000
O431        O  0.43074100  0.84197780  0.22209800    -0.74400
O432        O  0.43943649  0.87714963  0.24491525    -0.77900
O433        O  0.49456126  0.85370215  0.30575637    -0.78600
C434        C  0.43175287  0.86440147  0.22568801     0.96700
O435        O  0.41279642  0.83904662  0.28451711    -0.76500
O436        O  0.46841839  0.82380584  0.21764055    -0.81700
C437        C  0.45728485  0.78457967  0.27179746     0.99300
C438        C  0.49389614  0.83285723  0.21910083     1.05200
O439        O  0.47905150  0.80593391  0.27896272    -0.77400
C440        C  0.39654982  0.81496237  0.27680911     1.03500
Fe441      Fe  0.11011544  0.60560921  0.27745290     1.65800
Fe442      Fe  0.16407863  0.64600008  0.24154695     1.73200
Fe443      Fe  0.13248096  0.67419436  0.27091956     1.54400
O444        O  0.09026735  0.65270149  0.26620435    -0.81100
O445        O  0.19452029  0.67992093  0.25822984    -0.79400
O446        O  0.07609781  0.60864510  0.27162345    -0.83600
O447        O  0.11571287  0.62202056  0.31054884    -0.78500
O448        O  0.13629354  0.68746049  0.23704973    -0.80200
O449        O  0.17449962  0.62232267  0.26051824    -0.83000
C450        C  0.12257104  0.64537808  0.31882219     0.97800
C451        C  0.07142323  0.62748978  0.26679618     1.05200
O452        O  0.13558250  0.64196179  0.26334778    -1.12000
O453        O  0.13641416  0.61290198  0.22235310    -0.74400
O454        O  0.10168629  0.58518869  0.24578823    -0.77900
O455        O  0.12848678  0.66565283  0.30581367    -0.78600
C456        C  0.11344182  0.59116358  0.22605847     0.96700
O457        O  0.14044185  0.59701599  0.28495769    -0.76500
O458        O  0.15847134  0.67027526  0.21907454    -0.81700
C459        C  0.19572631  0.69921050  0.27014753     0.99300
C460        C  0.14797320  0.68507307  0.21929988     1.05200
O461        O  0.17460763  0.69987804  0.27617639    -0.77400
C462        C  0.16373213  0.60431126  0.27628723     1.03500
Fe463      Fe  0.16898456  0.47079017  0.03054117     1.65800
Fe464      Fe  0.18252032  0.52795824  0.06017590     1.73200
Fe465      Fe  0.11865760  0.48660287  0.03752031     1.54400
O466        O  0.12144294  0.48148332  0.00265502    -0.81100
O467        O  0.15340087  0.52369534  0.08374878    -0.79400
O468        O  0.15158635  0.46802893  0.99821818    -0.83600
O469        O  0.13457568  0.43613463  0.04289438    -0.78500
O470        O  0.13107021  0.52733262  0.03044566    -0.80200
O471        O  0.19221089  0.50625820  0.08223711    -0.83000
C472        C  0.10997332  0.42912685  0.04715541     0.97800
C473        C  0.13494868  0.47439743  0.99003704     1.05200
O474        O  0.15666200  0.49500057  0.04273519    -1.12000
O475        O  0.21576019  0.53745732  0.03975689    -0.74400
O476        O  0.20532319  0.50220060  0.01686372    -0.77900
O477        O  0.10087507  0.44499987  0.04431513    -0.78600
C478        C  0.22179906  0.52655148  0.02361479     0.96700
O479        O  0.18856722  0.47168370  0.06151730    -0.76500
O480        O  0.17561069  0.55269325  0.03947829    -0.81700
C481        C  0.12785874  0.50792323  0.08716004     0.99300
C482        C  0.15393825  0.55005425  0.03098962     1.05200
O483        O  0.11196498  0.49111306  0.07195186    -0.77400
C484        C  0.19553422  0.48603904  0.07999827     1.03500
Fe485      Fe  0.49970735  0.73011145  0.02943180     1.65800
Fe486      Fe  0.44469579  0.68998250  0.06399216     1.73200
Fe487      Fe  0.47961884  0.66309030  0.03944689     1.54400
O488        O  0.48963639  0.67195658  0.00465047    -0.81100
O489        O  0.45550331  0.67410088  0.09093311    -0.79400
O490        O  0.49408728  0.71225199  0.99743666    -0.83600
O491        O  0.53414017  0.72775147  0.03580581    -0.78500
O492        O  0.43957454  0.63778353  0.02890124    -0.80200
O493        O  0.46804641  0.72803907  0.07893880    -0.83000
C494        C  0.53887791  0.71051059  0.04523461     0.97800
C495        C  0.49183372  0.69010861  0.99057348     1.05200
O496        O  0.47472468  0.69445675  0.04430863    -1.12000
O497        O  0.43079886  0.70568548  0.03933353    -0.74400
O498        O  0.46863692  0.73743904  0.02140904    -0.77900
O499        O  0.52000320  0.68597322  0.04940776    -0.78600
C500        C  0.44320758  0.72625218  0.02593126     0.96700
O501        O  0.50762475  0.75206521  0.05990735    -0.76500
O502        O  0.41702743  0.65144577  0.05136237    -0.81700
C503        C  0.46246853  0.65634884  0.09167093     0.99300
C504        C  0.41754517  0.63514069  0.03671825     1.05200
O505        O  0.46981217  0.64905731  0.07357846    -0.77400
C506        C  0.49156490  0.74944072  0.07632777     1.03500
Fe507      Fe  0.37323285  0.53165675  0.28536655     1.65800
Fe508      Fe  0.34010345  0.55064008  0.24742001     1.73200
Fe509      Fe  0.30516638  0.48650926  0.27120633     1.54400
O510        O  0.32573696  0.46550752  0.26613283    -0.81100
O511        O  0.30406430  0.54484175  0.26009472    -0.79400
O512        O  0.36899841  0.49438652  0.27664090    -0.83600
O513        O  0.35187986  0.51607128  0.31635715    -0.78500
O514        O  0.29629067  0.48179812  0.23602272    -0.80200
O515        O  0.35999158  0.58168072  0.27114411    -0.83000
C516        C  0.32713121  0.49855292  0.32193148     0.97800
C517        C  0.35023601  0.47107683  0.26903147     1.05200
O518        O  0.33952124  0.52290833  0.26799323    -1.12000
O519        O  0.37621951  0.55989445  0.23221379    -0.74400
O520        O  0.39919499  0.54879887  0.25657883    -0.77900
O521        O  0.30860155  0.48617359  0.30678723    -0.78600
C522        C  0.39706741  0.55874470  0.23754348     0.96700
O523        O  0.38195163  0.57025454  0.29617076    -0.76500
O524        O  0.31996259  0.52356320  0.22071207    -0.81700
C525        C  0.28303498  0.52601733  0.27034155     0.99300
C526        C  0.30320648  0.49795474  0.21882573     1.05200
O527        O  0.28058786  0.50338883  0.27637540    -0.77400
C528        C  0.37521806  0.58685187  0.28868590     1.03500
Fe529      Fe  0.91544977  0.13457009  0.36732860     1.65800
Fe530      Fe  0.95367506  0.11915421  0.40191391     1.73200
Fe531      Fe  0.98368978  0.18238747  0.37735054     1.54400
O532        O  0.97824784  0.17968346  0.34219685    -0.81100
O533        O  0.97913625  0.14804691  0.42580461    -0.79400
O534        O  0.93327832  0.15321626  0.33595918    -0.83600
O535        O  0.91700256  0.16918343  0.37986557    -0.78500
O536        O  0.01020592  0.16757337  0.37301321    -0.80200
O537        O  0.92095645  0.11249057  0.42164769    -0.83000
C538        C  0.93616810  0.19368994  0.38412202     0.97800
C539        C  0.95779919  0.16830971  0.32872176     1.05200
O540        O  0.95100281  0.14540902  0.38210719    -1.12000
O541        O  0.92831487  0.08606767  0.38127202    -0.74400
O542        O  0.91010599  0.09856200  0.35371193    -0.77900
O543        O  0.96143926  0.20161958  0.38185945    -0.78600
C544        C  0.91376531  0.08072810  0.36318709     0.96700
O545        O  0.89208581  0.11354133  0.39634129    -0.76500
O546        O  0.98692900  0.12355801  0.38407351    -0.81700
C547        C  0.99186736  0.17388047  0.42803631     0.99300
C548        C  0.00821267  0.14444935  0.37584789     1.05200
O549        O  0.99335049  0.18959398  0.41193728    -0.77400
C550        C  0.89743598  0.10795886  0.41620544     1.03500
Fe551      Fe  0.11697979  0.18962742  0.61198547     1.65800
Fe552      Fe  0.10347420  0.13410020  0.57904511     1.73200
Fe553      Fe  0.16366499  0.16864527  0.60922291     1.54400
O554        O  0.18557844  0.21062234  0.60239150    -0.81100
O555        O  0.10565899  0.10505057  0.59814187    -0.79400
O556        O  0.15516362  0.22364758  0.60612999    -0.83600
O557        O  0.12635339  0.18593545  0.64595789    -0.78500
O558        O  0.17434935  0.16316827  0.57649309    -0.80200
O559        O  0.06816472  0.12433993  0.59664826    -0.83000
C560        C  0.14274493  0.17993639  0.65515016     0.97800
C561        C  0.17931851  0.22897133  0.60219449     1.05200
O562        O  0.12802183  0.16409558  0.60010445    -1.12000
O563        O  0.09896977  0.16024829  0.55786520    -0.74400
O564        O  0.10607040  0.19588388  0.57930188    -0.77900
O565        O  0.15794561  0.17432668  0.64332713    -0.78600
C566        C  0.09998875  0.18284945  0.56018062     0.96700
O567        O  0.07686787  0.15956449  0.61913826    -0.76500
O568        O  0.13465018  0.13871375  0.55789961    -0.81700
C569        C  0.12362343  0.10508712  0.61108520     0.99300
C570        C  0.16050685  0.14993177  0.55897794     1.05200
O571        O  0.14594724  0.12693875  0.61665019    -0.77400
C572        C  0.06053854  0.13595780  0.61085432     1.03500
Fe573      Fe  0.17655132  0.06094714  0.36450823     1.65800
Fe574      Fe  0.12199252  0.02515065  0.40025206     1.73200
Fe575      Fe  0.15211991  0.99383672  0.37550871     1.54400
O576        O  0.16376234  0.00306574  0.34118204    -0.81100
O577        O  0.13159307  0.00796853  0.42695531    -0.79400
O578        O  0.16584712  0.04200020  0.33260439    -0.83600
O579        O  0.20860739  0.05384480  0.36781103    -0.78500
O580        O  0.11203325  0.97152199  0.36436685    -0.80200
O581        O  0.14907527  0.06310596  0.41462614    -0.83000
C582        C  0.21219652  0.03760908  0.38028922     0.97800
C583        C  0.16482630  0.02007818  0.32648763     1.05200
O584        O  0.15005165  0.02664058  0.38005523    -1.12000
O585        O  0.10947131  0.04250397  0.37602921    -0.74400
O586        O  0.14878728  0.07393759  0.35973344    -0.77900
O587        O  0.19219251  0.01446052  0.38652669    -0.78600
C588        C  0.12346399  0.06413220  0.36420066     0.96700
O589        O  0.18900668  0.08184497  0.39542729    -0.76500
O590        O  0.09184318  0.98705014  0.38780895    -0.81700
C591        C  0.13528124  0.98801204  0.42750446     0.99300
C592        C  0.09079855  0.97047770  0.37244813     1.05200
O593        O  0.14050047  0.97923709  0.40913298    -0.77400
C594        C  0.17448440  0.08116550  0.41238814     1.03500
Fe595      Fe  0.78178471  0.93590911  0.61804893     1.65800
Fe596      Fe  0.83630736  0.98069751  0.58520308     1.73200
Fe597      Fe  0.80277072  0.00451070  0.60739800     1.54400
O598        O  0.76186040  0.98105615  0.59778878    -0.81100
O599        O  0.86282663  0.00290664  0.61093083    -0.79400
O600        O  0.74750754  0.93781128  0.60888600    -0.83600
O601        O  0.78381471  0.95387470  0.64991313    -0.78500
O602        O  0.81298367  0.01389545  0.57189988    -0.80200
O603        O  0.83873026  0.94693197  0.59314575    -0.83000
C604        C  0.78706005  0.97687089  0.65629006     0.97800
C605        C  0.74317686  0.95581555  0.60018791     1.05200
O606        O  0.80685020  0.97268216  0.60584719    -1.12000
O607        O  0.80675321  0.95160020  0.56199425    -0.74400
O608        O  0.77881372  0.91731592  0.58635944    -0.77900
O609        O  0.79227597  0.99618314  0.64205274    -0.78600
C610        C  0.78855375  0.92605581  0.56615670     0.96700
O611        O  0.81547880  0.93190410  0.62627940    -0.76500
O612        O  0.81304306  0.97748406  0.55734731    -0.81700
C613        C  0.86362407  0.02357136  0.62030629     0.99300
C614        C  0.81316079  0.99981654  0.55452530     1.05200
O615        O  0.84432423  0.02873691  0.61785242    -0.77400
C616        C  0.83311509  0.93303197  0.61175988     1.03500
Fe617      Fe  0.83863438  0.80129246  0.36245397     1.65800
Fe618      Fe  0.85677947  0.85797939  0.39489561     1.73200
Fe619      Fe  0.79154658  0.81991281  0.37459436     1.54400
O620        O  0.79201084  0.81631146  0.33927414    -0.81100
O621        O  0.82947718  0.85579828  0.41949990    -0.79400
O622        O  0.81995008  0.80079754  0.33170648    -0.83600
O623        O  0.80397831  0.76713371  0.37435913    -0.78500
O624        O  0.80575218  0.86141591  0.36960406    -0.80200
O625        O  0.86405972  0.83326072  0.41555702    -0.83000
C626        C  0.77973004  0.76066713  0.37921672     0.97800
C627        C  0.80345546  0.80817757  0.32528201     1.05200
O628        O  0.82895688  0.82628709  0.37724363    -1.12000
O629        O  0.88912839  0.86586851  0.37361444    -0.74400
O630        O  0.87493273  0.83190764  0.34829480    -0.77900
O631        O  0.77198569  0.77783260  0.37923545    -0.78600
C632        C  0.89329160  0.85485050  0.35629556     0.96700
O633        O  0.85848716  0.79943680  0.39198942    -0.76500
O634        O  0.85119453  0.88445536  0.37521945    -0.81700
C635        C  0.80411640  0.84033010  0.42409354     0.99300
C636        C  0.82942617  0.88315678  0.36843211     1.05200
O637        O  0.78752168  0.82280433  0.40973017    -0.77400
C638        C  0.86533888  0.81211459  0.41129936     1.03500
Fe639      Fe  0.04022735  0.85221169  0.61451736     1.65800
Fe640      Fe  0.00448965  0.87423777  0.58352352     1.73200
Fe641      Fe  0.97070206  0.80872240  0.60429236     1.54400
O642        O  0.98969794  0.78653551  0.59665821    -0.81100
O643        O  0.97209130  0.87044182  0.60224332    -0.79400
O644        O  0.03409229  0.81521354  0.60314268    -0.83600
O645        O  0.02177043  0.83599647  0.64630391    -0.78500
O646        O  0.96012591  0.80492366  0.56953195    -0.80200
O647        O  0.03024535  0.90512253  0.60581101    -0.83000
C648        C  0.99727050  0.82020718  0.65341267     0.97800
C649        C  0.01436762  0.79202624  0.59650306     1.05200
O650        O  0.00513571  0.84504443  0.60084572    -1.12000
O651        O  0.03661793  0.88047932  0.56304157    -0.74400
O652        O  0.06230815  0.86941959  0.58408064    -0.77900
O653        O  0.97692556  0.80850397  0.63961280    -0.78600
C654        C  0.05752572  0.87841748  0.56565458     0.96700
O655        O  0.05228441  0.89080758  0.62765061    -0.76500
O656        O  0.97830763  0.84825915  0.55848470    -0.81700
C657        C  0.95023724  0.84999287  0.61022285     0.99300
C658        C  0.96311591  0.82270407  0.55477754     1.05200
O659        O  0.94666574  0.82601016  0.61149612    -0.77400
C660        C  0.04698398  0.90893719  0.62181883     1.03500
Fe661      Fe  0.89830760  0.79407339  0.85920048     1.65800
Fe662      Fe  0.93504984  0.85285650  0.89073331     1.73200
Fe663      Fe  0.96715201  0.82085696  0.87032780     1.54400
O664        O  0.94683020  0.78075388  0.88243559    -0.81100
O665        O  0.97193818  0.88171196  0.87632274    -0.79400
O666        O  0.90370148  0.76248729  0.86976563    -0.83600
O667        O  0.91682231  0.79762947  0.82743429    -0.78500
O668        O  0.98105275  0.83433126  0.90404149    -0.80200
O669        O  0.91572538  0.86124969  0.86507208    -0.83000
C670        C  0.94028485  0.80224416  0.82141574     0.97800
C671        C  0.92239779  0.76054755  0.87984563     1.05200
O672        O  0.93349266  0.82259005  0.87336118    -1.12000
O673        O  0.89891407  0.82775556  0.90779904    -0.74400
O674        O  0.87606637  0.78749106  0.88951678    -0.77900
O675        O  0.95921768  0.80820881  0.83604901    -0.78600
C676        C  0.87917318  0.80307290  0.90644968     0.96700
O677        O  0.88767240  0.82172212  0.84712312    -0.76500
O678        O  0.95447970  0.84832985  0.91866578    -0.81700
C679        C  0.99075611  0.88240939  0.86400298     0.99300
C680        C  0.97399562  0.84407258  0.92065813     1.05200
O681        O  0.99078370  0.86094636  0.85815757    -0.77400
C682        C  0.89699928  0.84712475  0.85045500     1.03500
Fe683      Fe  0.10504388  0.93302501  0.11595246     1.65800
Fe684      Fe  0.09218349  0.97540980  0.08503235     1.73200
Fe685      Fe  0.15499998  0.00114871  0.10927577     1.54400
O686        O  0.15053955  0.99439082  0.14424859    -0.81100
O687        O  0.12238522  0.00258526  0.06272133    -0.79400
O688        O  0.12254406  0.94898912  0.14831701    -0.83600
O689        O  0.13971078  0.93425904  0.10445697    -0.78500
O690        O  0.14193240  0.02927854  0.11371870    -0.80200
O691        O  0.08535501  0.94485880  0.06260712    -0.83000
C692        C  0.16494155  0.95253271  0.10303589     0.97800
C693        C  0.13821335  0.97295441  0.15669997     1.05200
O694        O  0.11743988  0.96978257  0.10353560    -1.12000
O695        O  0.05775461  0.94885967  0.10398783    -0.74400
O696        O  0.06856835  0.92686133  0.12917014    -0.77900
O697        O  0.17353544  0.97792043  0.10575202    -0.78600
C698        C  0.05155491  0.93238132  0.12079958     0.96700
O699        O  0.08590082  0.91307618  0.08469006    -0.76500
O700        O  0.09699601  0.00638846  0.10602624    -0.81700
C701        C  0.14777412  0.01202077  0.05938205     0.99300
C702        C  0.11866105  0.02744896  0.11331654     1.05200
O703        O  0.16285214  0.01044384  0.07455782    -0.77400
C704        C  0.08129384  0.92101736  0.06547108     1.03500
Fe705      Fe  0.17209746  0.13557147  0.86820205     1.65800
Fe706      Fe  0.11612200  0.12069134  0.90084387     1.73200
Fe707      Fe  0.15351924  0.18379367  0.87508090     1.54400
O708        O  0.19518389  0.20324998  0.88317739    -0.81100
O709        O  0.08922237  0.12742806  0.88340008    -0.79400
O710        O  0.20651908  0.17202574  0.87737595    -0.83600
O711        O  0.17054708  0.14937372  0.83559587    -0.78500
O712        O  0.14690798  0.19105299  0.90913521    -0.80200
O713        O  0.10468340  0.08783700  0.87898694    -0.83000
C714        C  0.16475259  0.16624166  0.82727029     0.97800
C715        C  0.21273366  0.19592663  0.88356392     1.05200
O716        O  0.14726908  0.14673019  0.88144083    -1.12000
O717        O  0.13965338  0.11091207  0.92038260    -0.74400
O718        O  0.17613355  0.11981588  0.89927279    -0.77900
O719        O  0.15988059  0.18130560  0.84012178    -0.78600
C720        C  0.16179768  0.11108470  0.91763674     0.96700
O721        O  0.14095288  0.09724488  0.85756827    -0.76500
O722        O  0.12263383  0.14975145  0.92548407    -0.81700
C723        C  0.09016681  0.14628711  0.87118162     0.99300
C724        C  0.13386698  0.17563819  0.92618577     1.05200
O725        O  0.11247968  0.16854019  0.86647641    -0.77400
C726        C  0.11606484  0.08144133  0.86343922     1.03500
Fe727      Fe  0.83781098  0.06166176  0.86715428     1.65800
Fe728      Fe  0.85369384  0.01947047  0.89575220     1.73200
Fe729      Fe  0.79004590  0.99219705  0.87163321     1.54400
O730        O  0.76973443  0.01267031  0.88023864    -0.81100
O731        O  0.84833374  0.98771639  0.87527258    -0.79400
O732        O  0.80104468  0.05720721  0.87724586    -0.83600
O733        O  0.82314185  0.04764157  0.83405049    -0.78500
O734        O  0.78318587  0.97733320  0.90525954    -0.80200
O735        O  0.88660919  0.04537473  0.87539287    -0.83000
C736        C  0.80604768  0.02443782  0.82525334     0.97800
C737        C  0.77669467  0.03777065  0.88125812     1.05200
O738        O  0.82713145  0.02444567  0.87814977    -1.12000
O739        O  0.86160290  0.05053280  0.91824390    -0.74400
O740        O  0.85372352  0.07976350  0.89927416    -0.77900
O741        O  0.79248677  0.00280364  0.83732464    -0.78600
C742        C  0.86114594  0.07246022  0.91728138     0.96700
O743        O  0.87635170  0.07183242  0.85527392    -0.76500
O744        O  0.82506717  0.99260725  0.91887478    -0.81700
C745        C  0.82813311  0.96849280  0.86442100     0.99300
C746        C  0.79917949  0.97818581  0.92088096     1.05200
O747        O  0.80529709  0.96720702  0.86207122    -0.77400
C748        C  0.89273717  0.06403050  0.86065741     1.03500
Fe749      Fe  0.04188621  0.19807712  0.12068633     1.65800
Fe750      Fe  0.00399273  0.14176445  0.08605340     1.73200
Fe751      Fe  0.97396570  0.17523673  0.10880009     1.54400
O752        O  0.97967435  0.18190214  0.14393727    -0.81100
O753        O  0.98302876  0.14718658  0.05952912    -0.79400
O754        O  0.02281531  0.19426675  0.15237830    -0.83600
O755        O  0.03927250  0.23145750  0.11159292    -0.78500
O756        O  0.94771642  0.13374997  0.11614891    -0.80200
O757        O  0.04009851  0.16759779  0.06878194    -0.83000
C758        C  0.02108980  0.23587560  0.10399255     0.97800
C759        C  0.99875431  0.18803578  0.15834268     1.05200
O760        O  0.00663401  0.17169149  0.10520444    -1.12000
O761        O  0.02438755  0.13177218  0.10962760    -0.74400
O762        O  0.05007723  0.16849955  0.13162201    -0.77900
O763        O  0.99611880  0.21690761  0.10165236    -0.78600
C764        C  0.04198308  0.14407061  0.12547113     0.96700
O765        O  0.06511810  0.20486177  0.09075287    -0.76500
O766        O  0.96790702  0.11244751  0.10135568    -0.81700
C767        C  0.96800854  0.15733614  0.05739329     0.99300
C768        C  0.94840031  0.11222057  0.11211242     1.05200
O769        O  0.96341058  0.16873895  0.07420684    -0.77400
C770        C  0.06172544  0.19066841  0.07265615     1.03500
Fe771      Fe  0.77214028  0.85858954  0.11540850     1.65800
Fe772      Fe  0.82564238  0.87280708  0.07943080     1.73200
Fe773      Fe  0.79043538  0.81038129  0.10634174     1.54400
O774        O  0.78605992  0.81314252  0.14152248    -0.81100
O775        O  0.81721890  0.84341307  0.05505865    -0.79400
O776        O  0.77630258  0.84560080  0.14749599    -0.83600
O777        O  0.73690476  0.82138953  0.10853040    -0.78500
O778        O  0.83161592  0.82587463  0.11273618    -0.80200
O779        O  0.80022477  0.88174855  0.06156109    -0.83000
C780        C  0.73102871  0.79755789  0.10240024     0.97800
C781        C  0.78168718  0.82809547  0.15496976     1.05200
O782        O  0.79602537  0.84724022  0.10039107    -1.12000
O783        O  0.83840946  0.90610560  0.10060145    -0.74400
O784        O  0.80421212  0.89761870  0.12427515    -0.77900
O785        O  0.74874681  0.79062395  0.10078534    -0.78600
C786        C  0.82849451  0.91332257  0.11672987     0.96700
O787        O  0.76523011  0.87312669  0.08485475    -0.76500
O788        O  0.85425939  0.86665064  0.09508763    -0.81700
C789        C  0.80536661  0.81751318  0.05411737     0.99300
C790        C  0.85363354  0.84792911  0.10734221     1.05200
O791        O  0.79425883  0.80259336  0.07180957    -0.77400
C792        C  0.77805194  0.88109417  0.06571313     1.03500
C793        C  0.88815890  0.98622578  0.12700937    -0.11300
C794        C  0.87418825  0.99932612  0.13370530     0.11300
C795        C  0.84554848  0.98331568  0.13812685    -0.03100
C796        C  0.83160544  0.95485343  0.13390707    -0.05800
C797        C  0.84535858  0.94195123  0.12567208    -0.16600
C798        C  0.87453101  0.95772265  0.12367366     0.02300
C799        C  0.88978386  0.02972506  0.13177112     0.12300
C800        C  0.82855040  0.99508334  0.14654048     0.62900
H801        H  0.80945051  0.94288148  0.13598347     0.12300
C802        C  0.89163932  0.94522325  0.11743173     0.55000
H803        H  0.90993556  0.99881871  0.12316926     0.08100
C804        C  0.91207798  0.04674038  0.14660426    -0.05700
C805        C  0.93001100  0.07431153  0.14027457    -0.06500
C806        C  0.92579547  0.08532886  0.12016156    -0.16100
C807        C  0.90241892  0.06890896  0.10626505    -0.01600
C808        C  0.88470236  0.04116550  0.11231577    -0.09200
C809        C  0.91691218  0.03582876  0.16892539     0.65100
H810        H  0.94826979  0.08710979  0.15040662     0.10500
C811        C  0.89701722  0.08048811  0.08466807     0.63500
H812        H  0.86750286  0.02777068  0.10123202     0.07900
F813        F  0.91908000  0.96276559  0.12297509    -0.19600
F814        F  0.89003636  0.94002735  0.09388707    -0.15800
F815        F  0.88242763  0.92109669  0.12960387    -0.19300
F816        F  0.80953663  0.99102355  0.12973360    -0.22700
F817        F  0.84418654  0.02282224  0.15154854    -0.24100
F818        F  0.81464219  0.98152545  0.16652486    -0.18100
F819        F  0.87334951  0.06100326  0.07337870    -0.20600
F820        F  0.91881288  0.08968463  0.06936738    -0.21800
F821        F  0.89399066  0.10222262  0.09074727    -0.19000
F822        F  0.93807205  0.05654074  0.18180709    -0.19100
F823        F  0.92372203  0.01636838  0.16418804    -0.22900
F824        F  0.89328290  0.02401346  0.18229966    -0.24500
C825        C  0.75634185  0.93951627  0.97430678    -0.11300
C826        C  0.77300533  0.93058161  0.98369273     0.11300
C827        C  0.79710213  0.93597768  0.97186742    -0.03100
C828        C  0.80415421  0.95099499  0.95122278    -0.05800
C829        C  0.78817511  0.96092757  0.94202440    -0.16600
C830        C  0.76358955  0.95487173  0.95357774     0.02300
C831        C  0.76601154  0.91678453  0.00654872     0.12300
C832        C  0.81544130  0.92601382  0.98101951     0.62900
H833        H  0.82248631  0.95510775  0.94197823     0.12300
C834        C  0.74564285  0.96528155  0.94469850     0.55000
H835        H  0.73787552  0.93478567  0.98365516     0.08100
C836        C  0.77545188  0.93217762  0.02734208    -0.05700
C837        C  0.77604321  0.91883448  0.04758380    -0.06500
C838        C  0.76774692  0.89100315  0.04724051    -0.16100
C839        C  0.75530972  0.87503485  0.02719032    -0.01600
C840        C  0.75423194  0.88823186  0.00706020    -0.09200
C841        C  0.78666105  0.96286074  0.02765386     0.65100
H842        H  0.78527964  0.93054926  0.06325783     0.10500
C843        C  0.74446346  0.84448281  0.02696849     0.63500
H844        H  0.74651098  0.87681358  0.99102750     0.07900
F845        F  0.72444277  0.95942750  0.95991634    -0.19600
F846        F  0.73407496  0.95294644  0.92371975    -0.15800
F847        F  0.76129800  0.99348242  0.94187208    -0.19300
F848        F  0.80129164  0.89763171  0.98061882    -0.22700
F849        F  0.82349183  0.93505076  0.00349444    -0.24100
F850        F  0.83902551  0.93559703  0.96779068    -0.18100
F851        F  0.72517069  0.83184232  0.04443631    -0.20600
F852        F  0.76579910  0.84005980  0.03052500    -0.21800
F853        F  0.73209116  0.83242647  0.00609496    -0.19000
F854        F  0.79406314  0.97371442  0.04977087    -0.19100
F855        F  0.76682516  0.96783844  0.01969963    -0.22900
F856        F  0.80963664  0.97637101  0.01356693    -0.24500
C857        C  0.94507964  0.14134365  0.99420178    -0.11300
C858        C  0.91902352  0.13813186  0.99568944     0.11300
C859        C  0.91109168  0.14561429  0.01627958    -0.03100
C860        C  0.92841911  0.15321120  0.03571432    -0.05800
C861        C  0.95355997  0.15402542  0.03498757    -0.16600
C862        C  0.96289091  0.14979528  0.01336236     0.02300
C863        C  0.89976878  0.12419710  0.97613324     0.12300
C864        C  0.88436881  0.14533663  0.01771740     0.62900
H865        H  0.92162319  0.15720734  0.05197719     0.12300
C866        C  0.99138042  0.15419031  0.01014560     0.55000
H867        H  0.95094671  0.13609077  0.97802933     0.08100
C868        C  0.90409033  0.13588842  0.95369994    -0.05700
C869        C  0.88959238  0.11864662  0.93489521    -0.06500
C870        C  0.87078092  0.09044088  0.93797680    -0.16100
C871        C  0.86416392  0.07953366  0.96076217    -0.01600
C872        C  0.87937134  0.09650295  0.97938211    -0.09200
C873        C  0.92417090  0.16600335  0.94849741     0.65100
H874        H  0.89412999  0.12706523  0.91750287     0.10500
C875        C  0.84232048  0.04975536  0.96566617     0.63500
H876        H  0.87646573  0.08768247  0.99653338     0.07900
F877        F  0.01088063  0.17879428  0.02021976    -0.19600
F878        F  0.99809029  0.15534894  0.98690846    -0.15800
F879        F  0.99252255  0.13279459  0.02008248    -0.19300
F880        F  0.86226494  0.11859324  0.01763454    -0.22700
F881        F  0.88232835  0.15920985  0.99895023    -0.24100
F882        F  0.88297940  0.15804633  0.03770515    -0.18100
F883        F  0.85351948  0.03346415  0.96317784    -0.20600
F884        F  0.82032471  0.04070786  0.95069116    -0.21800
F885        F  0.83224106  0.04671093  0.98803597    -0.19000
F886        F  0.91053231  0.17661416  0.93693514    -0.19100
F887        F  0.94500627  0.16843300  0.93441987    -0.22900
F888        F  0.93576547  0.18165561  0.96819932    -0.24500
C889        C  0.11301204  0.19212681  0.03042774    -0.11300
C890        C  0.11397243  0.21048254  0.01382381     0.11300
C891        C  0.10246960  0.22669346  0.01906134    -0.03100
C892        C  0.08719606  0.22137751  0.03970377    -0.05800
C893        C  0.08367059  0.20073825  0.05501708    -0.16600
C894        C  0.09814602  0.18710787  0.05115010     0.02300
C895        C  0.12157956  0.20749473  0.98982909     0.12300
C896        C  0.10618582  0.24920228  0.00276472     0.62900
H897        H  0.07649679  0.23207142  0.04330170     0.12300
C898        C  0.09762243  0.16720555  0.06883210     0.55000
H899        H  0.12239377  0.18029073  0.02627546     0.08100
C900        C  0.14856278  0.21508686  0.98293804    -0.05700
C901        C  0.15219546  0.20490801  0.96173838    -0.06500
C902        C  0.12976468  0.18780767  0.94738900    -0.16100
C903        C  0.10314074  0.18171523  0.95374703    -0.01600
C904        C  0.09951465  0.19142513  0.97495205    -0.09200
C905        C  0.17387252  0.23330150  0.99740636     0.65100
H906        H  0.17258611  0.20983360  0.95662655     0.10500
C907        C  0.07852391  0.16485321  0.93819480     0.63500
H908        H  0.07898653  0.18536756  0.98068354     0.07900
F909        F  0.11494503  0.15800474  0.06265270    -0.19600
F910        F  0.07131646  0.14458635  0.07106538    -0.15800
F911        F  0.10622977  0.18037293  0.08997730    -0.19300
F912        F  0.09309040  0.23807636  0.98195957    -0.22700
F913        F  0.13392125  0.26710491  0.99864584    -0.24100
F914        F  0.09553244  0.26411829  0.01206535    -0.18100
F915        F  0.05519444  0.16391812  0.94637673    -0.20600
F916        F  0.07286504  0.13820054  0.93686412    -0.21800
F917        F  0.08423807  0.17647426  0.91633743    -0.19000
F918        F  0.19356330  0.25434751  0.98374629    -0.19100
F919        F  0.18440693  0.21792792  0.00564152    -0.22900
F920        F  0.16848947  0.24508958  0.01603540    -0.24500
C921        C  0.96388892  0.08008718  0.84431062    -0.11300
C922        C  0.97852881  0.10869020  0.84680551     0.11300
C923        C  0.96428081  0.12279245  0.84782484    -0.03100
C924        C  0.93542550  0.10729588  0.84985080    -0.05800
C925        C  0.92098520  0.07843474  0.85099460    -0.16600
C926        C  0.93514784  0.06453315  0.84639605     0.02300
C927        C  0.00793357  0.12220105  0.85300527     0.12300
C928        C  0.97973560  0.15396052  0.84780185     0.62900
H929        H  0.92428523  0.11768382  0.85258660     0.12300
C930        C  0.92051573  0.03341981  0.84506796     0.55000
H931        H  0.97532214  0.06980146  0.84300477     0.08100
C932        C  0.01553360  0.12220057  0.87632264    -0.05700
C933        C  0.04311301  0.13217582  0.88123670    -0.06500
C934        C  0.06328850  0.14173941  0.86388154    -0.16100
C935        C  0.05594558  0.14234989  0.84055548    -0.01600
C936        C  0.02807815  0.13260219  0.83548024    -0.09200
C937        C  0.99449509  0.11010564  0.89593289     0.65100
H938        H  0.04888262  0.13092876  0.89871848     0.10500
C939        C  0.07694736  0.15159027  0.82113503     0.63500
H940        H  0.02159813  0.13200230  0.81777548     0.07900
F941        F  0.91491776  0.02237366  0.86713944    -0.19600
F942        F  0.93651767  0.02517030  0.83383417    -0.15800
F943        F  0.89623144  0.02297435  0.83284977    -0.19300
F944        F  0.99549178  0.16370306  0.82788291    -0.22700
F945        F  0.99684020  0.16436614  0.86685347    -0.24100
F946        F  0.96200504  0.16367233  0.84836623    -0.18100
F947        F  0.08858628  0.13554940  0.82090192    -0.20600
F948        F  0.09736943  0.17876360  0.82442478    -0.21800
F949        F  0.06517759  0.14936122  0.79966006    -0.19000
F950        F  0.00689969  0.11421093  0.91738612    -0.19100
F951        F  0.97735768  0.08212459  0.89270977    -0.22900
F952        F  0.97888927  0.12216742  0.89656455    -0.24500
C953        C  0.97886063  0.87715395  0.13788898    -0.11300
C954        C  0.96515592  0.89067024  0.13194204     0.11300
C955        C  0.98024308  0.91933946  0.12821515    -0.03100
C956        C  0.00898048  0.93286306  0.12690935    -0.05800
C957        C  0.02286218  0.91867047  0.12970858    -0.16600
C958        C  0.00776724  0.89083407  0.13728973     0.02300
C959        C  0.93545449  0.87415411  0.12670995     0.12300
C960        C  0.96588749  0.93525494  0.12483007     0.62900
H961        H  0.02076895  0.95445768  0.12239239     0.12300
C962        C  0.02160502  0.87526053  0.14412699     0.55000
H963        H  0.96660949  0.85537253  0.14165081     0.08100
C964        C  0.92631624  0.86471167  0.10386369    -0.05700
C965        C  0.89866301  0.85447031  0.09850429    -0.06500
C966        C  0.88009873  0.85257282  0.11541012    -0.16100
C967        C  0.88852068  0.85911652  0.13877917    -0.01600
C968        C  0.91645254  0.87017876  0.14406963    -0.09200
C969        C  0.94591314  0.86636197  0.08508984     0.65100
H970        H  0.89150027  0.84889508  0.08081643     0.10500
C971        C  0.86823036  0.85514741  0.15773244     0.63500
H972        H  0.92390656  0.87688222  0.16153281     0.07900
F973        F  0.03569444  0.87316864  0.12551746    -0.19600
F974        F  0.00279509  0.84890607  0.15167300    -0.15800
F975        F  0.03968585  0.88891032  0.16208263    -0.19300
F976        F  0.95007269  0.93205408  0.14415546    -0.22700
F977        F  0.94908252  0.92568306  0.10555125    -0.24100
F978        F  0.98447351  0.96307170  0.12181812    -0.18100
F979        F  0.88090279  0.86389024  0.17909545    -0.20600
F980        F  0.84825019  0.82756539  0.15944158    -0.21800
F981        F  0.85581928  0.86982115  0.15261619    -0.19000
F982        F  0.93243470  0.85508796  0.06438618    -0.19100
F983        F  0.95812876  0.85203857  0.09201246    -0.22900
F984        F  0.96610787  0.89344257  0.08103367    -0.24500
C985        C  0.18280842  0.06904176  0.95350960    -0.11300
C986        C  0.17454058  0.07241755  0.97553274     0.11300
C987        C  0.16577878  0.09127342  0.97881580    -0.03100
C988        C  0.16450833  0.10536833  0.95950123    -0.05800
C989        C  0.17038398  0.10028743  0.93703815    -0.16600
C990        C  0.18028132  0.08222959  0.93390222     0.02300
C991        C  0.17145367  0.05348294  0.99437428     0.12300
C992        C  0.15618122  0.09524673  0.00236533     0.62900
H993        H  0.15731369  0.11946886  0.96162538     0.12300
C994        C  0.18623842  0.07532085  0.91000426     0.55000
H995        H  0.18957361  0.05457297  0.95163805     0.08100
C996        C  0.14718445  0.02732215  0.99631311    -0.05700
C997        C  0.14154375  0.01344503  0.01748525    -0.06500
C998        C  0.15916948  0.02496352  0.03661443    -0.16100
C999        C  0.18499455  0.04968974  0.03376786    -0.01600
C1000       C  0.19076283  0.06349964  0.01237266    -0.09200
C1001       C  0.12677385  0.01467403  0.97646490     0.65100
H1002       H  0.12246482  0.99391615  0.01965061     0.10500
C1003       C  0.20564508  0.06229142  0.05338139     0.63500
H1004       H  0.20949866  0.08328269  0.01006636     0.07900
F1005       F  0.19380958  0.05590745  0.91096848    -0.19600
F1006       F  0.20755602  0.09869812  0.89977228    -0.15800
F1007       F  0.16299111  0.06480601  0.89633038    -0.19300
F1008       F  0.17741179  0.10497312  0.01817440    -0.22700
F1009       F  0.13427415  0.07053291  0.01019640    -0.24100
F1010       F  0.14764577  0.11391320  0.00142397    -0.18100
F1011       F  0.22883563  0.08686950  0.04691429    -0.20600
F1012       F  0.21398241  0.04445194  0.05988578    -0.21800
F1013       F  0.19388196  0.06744811  0.07217553    -0.19000
F1014       F  0.10384578  0.98971528  0.98257689    -0.19100
F1015       F  0.13922710  0.01021578  0.95780272    -0.22900
F1016       F  0.11788319  0.03201750  0.96979848    -0.24500
C1017       C  0.10318841  0.08388702  0.11050028    -0.11300
C1018       C  0.09702387  0.08574968  0.13373200     0.11300
C1019       C  0.10115308  0.07051616  0.15087763    -0.03100
C1020       C  0.11065624  0.05314395  0.14390013    -0.05800
C1021       C  0.11597629  0.05076857  0.12050158    -0.16600
C1022       C  0.11303110  0.06697275  0.10360327     0.02300
C1023       C  0.08415203  0.10218214  0.13862653     0.12300
C1024       C  0.09462490  0.07184786  0.17619275     0.62900
H1025       H  0.11249956  0.04012185  0.15646017     0.12300
C1026       C  0.11988051  0.06601310  0.07827727     0.55000
H1027       H  0.09947971  0.09536426  0.09762386     0.08100
C1028       C  0.09912263  0.13121132  0.13660332    -0.05700
C1029       C  0.08446582  0.14478176  0.13517759    -0.06500
C1030       C  0.05561155  0.13015903  0.13515177    -0.16100
C1031       C  0.04095649  0.10174911  0.14035631    -0.01600
C1032       C  0.05547606  0.08804385  0.14146243    -0.09200
C1033       C  0.13034394  0.14768137  0.13527497     0.65100
H1034       H  0.09542561  0.16673871  0.13227512     0.10500
C1035       C  0.01018648  0.08597118  0.14470651     0.63500
H1036       H  0.04422911  0.06587068  0.14306697     0.07900
F1037       F  0.11730412  0.08470897  0.06497623    -0.19600
F1038       F  0.10243672  0.04009878  0.06927392    -0.15800
F1039       F  0.14672096  0.07225734  0.07643375    -0.19300
F1040       F  0.06660047  0.05999443  0.17908053    -0.22700
F1041       F  0.10780914  0.09889295  0.18346581    -0.24100
F1042       F  0.10311510  0.05805196  0.19025607    -0.18100
F1043       F  0.99615530  0.07980803  0.12394622    -0.20600
F1044       F  0.00330953  0.10153902  0.15826403    -0.21800
F1045       F  0.00177023  0.06163681  0.15635914    -0.19000
F1046       F  0.14072143  0.17567741  0.13470836    -0.19100
F1047       F  0.13929136  0.14091618  0.11552027    -0.22900
F1048       F  0.14106934  0.14217497  0.15449182    -0.24500
C1049       C  0.81770550  0.77963446  0.94612110    -0.11300
C1050       C  0.83125810  0.78688264  0.96759464     0.11300
C1051       C  0.85914182  0.79436491  0.96891546    -0.03100
C1052       C  0.87318964  0.79673454  0.94827095    -0.05800
C1053       C  0.86054275  0.79253505  0.92660307    -0.16600
C1054       C  0.83214432  0.78283488  0.92532677     0.02300
C1055       C  0.81772948  0.79113800  0.98777376     0.12300
C1056       C  0.87451010  0.80138827  0.99184817     0.62900
H1057       H  0.89485742  0.80362366  0.94874839     0.12300
C1058       C  0.81774218  0.77760479  0.90217708     0.55000
H1059       H  0.79621943  0.77337347  0.94567419     0.08100
C1060       C  0.81741216  0.81565007  0.98999023    -0.05700
C1061       C  0.81077628  0.82196520  0.01158143    -0.06500
C1062       C  0.80551695  0.80528111  0.03122660    -0.16100
C1063       C  0.80357933  0.77951177  0.02838660    -0.01600
C1064       C  0.80923442  0.77273441  0.00638556    -0.09200
C1065       C  0.82535470  0.83576920  0.96995674     0.65100
H1066       H  0.81109189  0.84099499  0.01349842     0.10500
C1067       C  0.79718089  0.75981148  0.04839873     0.63500
H1068       H  0.80904992  0.75382826  0.00389194     0.07900
F1069       F  0.83065629  0.80123811  0.88887453    -0.19600
F1070       F  0.79044936  0.76976005  0.90480364    -0.15800
F1071       F  0.81862463  0.75682416  0.89062406    -0.19300
F1072       F  0.86256314  0.77859767  0.00611770    -0.22700
F1073       F  0.87373949  0.82262060  0.00268593    -0.24100
F1074       F  0.90184953  0.80955073  0.98884770    -0.18100
F1075       F  0.79670992  0.73631237  0.04151110    -0.20600
F1076       F  0.77162566  0.75171364  0.05745470    -0.21800
F1077       F  0.81694414  0.77244976  0.06544871    -0.19000
F1078       F  0.82523708  0.85911032  0.97634439    -0.19100
F1079       F  0.80686214  0.82336502  0.95200791    -0.22900
F1080       F  0.85150624  0.84400220  0.96213681    -0.24500
C1081       C  0.88711449  0.90448899  0.83360402    -0.11300
C1082       C  0.85851687  0.89119447  0.83588300     0.11300
C1083       C  0.84243141  0.86219373  0.83478742    -0.03100
C1084       C  0.85578077  0.84730920  0.83682408    -0.05800
C1085       C  0.88458979  0.86100546  0.83840090    -0.16600
C1086       C  0.90034558  0.88958273  0.83371213     0.02300
C1087       C  0.84682175  0.90801103  0.84305393     0.12300
C1088       C  0.81152160  0.84742768  0.83184344     0.62900
H1089       H  0.84374191  0.82522907  0.83910091     0.12300
C1090       C  0.93106213  0.90502072  0.82943917     0.55000
H1091       H  0.89929172  0.92675038  0.83287736     0.08100
C1092       C  0.84552479  0.91350725  0.86685049    -0.05700
C1093       C  0.83779355  0.93237461  0.87286201    -0.06500
C1094       C  0.83145543  0.94588496  0.85603414    -0.16100
C1095       C  0.83167435  0.93966468  0.83228824    -0.01600
C1096       C  0.83953889  0.92073105  0.82613047    -0.09200
C1097       C  0.85328784  0.90030758  0.88585898     0.65100
H1098       H  0.83749768  0.93750698  0.89091515     0.10500
C1099       C  0.82473639  0.95377217  0.81367172     0.63500
H1100       H  0.84088317  0.91632711  0.80807611     0.07900
F1101       F  0.94474219  0.92114722  0.84846019    -0.19600
F1102       F  0.93734197  0.92173238  0.81020227    -0.15800
F1103       F  0.94028065  0.88735945  0.82512666    -0.19300
F1104       F  0.80565266  0.85658541  0.81178083    -0.22700
F1105       F  0.79959639  0.85267149  0.85043837    -0.24100
F1106       F  0.79984365  0.81928768  0.83003136    -0.18100
F1107       F  0.82652279  0.94506892  0.79167015    -0.20600
F1108       F  0.84273655  0.98188094  0.81488212    -0.21800
F1109       F  0.79818426  0.94796049  0.81688300    -0.19000
F1110       F  0.84988831  0.90809309  0.90776259    -0.19100
F1111       F  0.88052985  0.90802437  0.88350075    -0.22900
F1112       F  0.83697000  0.87202266  0.88452445    -0.24500
C1113       C  0.01042624  0.88115250  0.97675039    -0.11300
C1114       C  0.02381994  0.86734413  0.98272310     0.11300
C1115       C  0.01941219  0.84461611  0.96934102    -0.03100
C1116       C  0.00269920  0.83738212  0.94940951    -0.05800
C1117       C  0.98972631  0.85168034  0.94291823    -0.16600
C1118       C  0.99351776  0.87397346  0.95708726     0.02300
C1119       C  0.04202124  0.87750269  0.00342479     0.12300
C1120       C  0.03215901  0.82806410  0.97627209     0.62900
H1121       H  0.99952173  0.82031143  0.93876897     0.12300
C1122       C  0.98058127  0.89086558  0.95155016     0.55000
H1123       H  0.01365647  0.89800708  0.98773750     0.08100
C1124       C  0.06836690  0.90180506  0.00256601    -0.05700
C1125       C  0.08205809  0.91366630  0.02349695    -0.06500
C1126       C  0.07006953  0.90241075  0.04511826    -0.16100
C1127       C  0.04471773  0.87694504  0.04587924    -0.01600
C1128       C  0.03105502  0.86491051  0.02488233    -0.09200
C1129       C  0.08122673  0.91619556  0.97977848     0.65100
H1130       H  0.10143252  0.93316607  0.02320837     0.10500
C1131       C  0.03118280  0.86363662  0.06871654     0.63500
H1132       H  0.01077774  0.84647948  0.02512726     0.07900
F1133       F  0.98971071  0.91317618  0.96626276    -0.19600
F1134       F  0.95231962  0.87472908  0.95391187    -0.15800
F1135       F  0.98724230  0.90097020  0.92920810    -0.19300
F1136       F  0.02207002  0.81607576  0.99766466    -0.22700
F1137       F  0.06041457  0.84497463  0.97761868    -0.24100
F1138       F  0.02620235  0.80737356  0.96049765    -0.18100
F1139       F  0.02529515  0.88082502  0.08094936    -0.20600
F1140       F  0.04869509  0.85880466  0.08151345    -0.21800
F1141       F  0.00687901  0.83873542  0.06556048    -0.19000
F1142       F  0.10820272  0.93747609  0.98264199    -0.19100
F1143       F  0.06651587  0.92701870  0.97063141    -0.22900
F1144       F  0.08115094  0.89779804  0.96411944    -0.24500
C1145       C  0.04206306  0.94791641  0.83197007    -0.11300
C1146       C  0.05232943  0.96632436  0.85076537     0.11300
C1147       C  0.04422810  0.95641310  0.87364497    -0.03100
C1148       C  0.02549005  0.92835206  0.87690600    -0.05800
C1149       C  0.01420089  0.91002917  0.85823898    -0.16600
C1150       C  0.02319003  0.91954910  0.83538298     0.02300
C1151       C  0.07020323  0.99620454  0.84642555     0.12300
C1152       C  0.05437739  0.97550256  0.89455991     0.62900
H1153       H  0.01866276  0.92051236  0.89420911     0.12300
C1154       C  0.01268247  0.90006116  0.81486121     0.55000
H1155       H  0.04875542  0.95602912  0.81467495     0.08100
C1156       C  0.09923369  0.01025440  0.84795366    -0.05700
C1157       C  0.11386580  0.03880637  0.85141405    -0.06500
C1158       C  0.10038994  0.05345622  0.85335197    -0.16100
C1159       C  0.07195133  0.03998684  0.84809033    -0.01600
C1160       C  0.05726425  0.01134878  0.84476577    -0.09200
C1161       C  0.11572524  0.99630503  0.84702289     0.65100
H1162       H  0.13586394  0.04939253  0.85425185     0.10500
C1163       C  0.05712211  0.05555610  0.84586280     0.63500
H1164       H  0.03513134  0.00027043  0.84272615     0.07900
F1165       F  0.02077410  0.88117417  0.81701988    -0.19600
F1166       F  0.02284397  0.91383889  0.79407145    -0.15800
F1167       F  0.98434577  0.88622698  0.81401586    -0.19300
F1168       F  0.04597541  0.99418969  0.89291034    -0.22700
F1169       F  0.08273464  0.98949960  0.89559565    -0.24100
F1170       F  0.04420538  0.96129752  0.91518376    -0.18100
F1171       F  0.03136456  0.03937716  0.83603624    -0.20600
F1172       F  0.07217878  0.07823330  0.83177384    -0.21800
F1173       F  0.05366240  0.06401661  0.86738381    -0.19000
F1174       F  0.13038494  0.00142306  0.86738021    -0.19100
F1175       F  0.13408559  0.00708075  0.82871362    -0.22900
F1176       F  0.09965103  0.96820475  0.84394985    -0.24500
C1177       C  0.99760948  0.83012266  0.71923595    -0.11300
C1178       C  0.97389200  0.80546265  0.72573845     0.11300
C1179       C  0.95877583  0.78516539  0.70879345    -0.03100
C1180       C  0.96811889  0.79030687  0.68568097    -0.05800
C1181       C  0.99154328  0.81532083  0.67883155    -0.16600
C1182       C  0.00683709  0.83559855  0.69606648     0.02300
C1183       C  0.96429590  0.80262483  0.75014979     0.12300
C1184       C  0.93224832  0.75868546  0.71492513     0.62900
H1185       H  0.95652438  0.77499677  0.67254322     0.12300
C1186       C  0.03205065  0.86338465  0.69024302     0.55000
H1187       H  0.00849292  0.84541233  0.73257056     0.08100
C1188       C  0.97533116  0.79467129  0.76825579    -0.05700
C1189       C  0.96596565  0.79371772  0.79105108    -0.06500
C1190       C  0.94651324  0.80108051  0.79640054    -0.16100
C1191       C  0.93569223  0.80933108  0.77808167    -0.01600
C1192       C  0.94483637  0.80983577  0.75526526    -0.09200
C1193       C  0.99736581  0.78786302  0.76358425     0.65100
H1194       H  0.97426497  0.78765009  0.80505381     0.10500
C1195       C  0.91546109  0.81863397  0.78237418     0.63500
H1196       H  0.93716041  0.81632404  0.74106911     0.07900
F1197       F  0.05282588  0.85988955  0.68200060    -0.19600
F1198       F  0.04211559  0.88046137  0.70942062    -0.15800
F1199       F  0.02543124  0.87648116  0.67371488    -0.19300
F1200       F  0.91264077  0.76457717  0.72180479    -0.22700
F1201       F  0.93669242  0.74538247  0.73278043    -0.24100
F1202       F  0.92187266  0.74083064  0.69626233    -0.18100
F1203       F  0.91014399  0.82846988  0.76240422    -0.20600
F1204       F  0.92606054  0.83956704  0.79858771    -0.21800
F1205       F  0.89075048  0.79678426  0.79027415    -0.19000
F1206       F  0.00472661  0.77986019  0.78354280    -0.19100
F1207       F  0.02065684  0.81068852  0.75479170    -0.22900
F1208       F  0.98796838  0.76666878  0.74772036    -0.24500
C1209       C  0.79494182  0.84198622  0.21984861    -0.11300
C1210       C  0.78975083  0.81647128  0.22744817     0.11300
C1211       C  0.77994801  0.79424855  0.21182480    -0.03100
C1212       C  0.77735792  0.79895166  0.18836753    -0.05800
C1213       C  0.78324781  0.82478640  0.18035870    -0.16600
C1214       C  0.79162068  0.84665689  0.19653800     0.02300
C1215       C  0.79354940  0.81344750  0.25228523     0.12300
C1216       C  0.77193134  0.76570114  0.22003150     0.62900
H1217       H  0.77038477  0.78224663  0.17607672     0.12300
C1218       C  0.79738894  0.87489650  0.18960599     0.55000
H1219       H  0.80157072  0.85825038  0.23255234     0.08100
C1220       C  0.81954558  0.82127142  0.26156249    -0.05700
C1221       C  0.82153600  0.81826096  0.28546234    -0.06500
C1222       C  0.79868002  0.80872547  0.30022415    -0.16100
C1223       C  0.77267074  0.80120467  0.29084226    -0.01600
C1224       C  0.77065558  0.80371568  0.26685393    -0.09200
C1225       C  0.84517791  0.83368403  0.24645894     0.65100
H1226       H  0.84132771  0.82443024  0.29298348     0.10500
C1227       C  0.74706267  0.79036678  0.30578864     0.63500
H1228       H  0.75118759  0.79850740  0.25920065     0.07900
F1229       F  0.81724473  0.88587776  0.17242054    -0.19600
F1230       F  0.80686082  0.89312586  0.20804751    -0.15800
F1231       F  0.77346373  0.87278341  0.18175692    -0.19300
F1232       F  0.75056929  0.75617409  0.23580667    -0.22700
F1233       F  0.79407324  0.76649360  0.23054646    -0.24100
F1234       F  0.76333933  0.74709417  0.20190165    -0.18100
F1235       F  0.72350061  0.77996946  0.29249535    -0.20600
F1236       F  0.74901596  0.81135326  0.31931002    -0.21800
F1237       F  0.74412536  0.76942110  0.31988901    -0.19000
F1238       F  0.86795482  0.83812740  0.25877661    -0.19100
F1239       F  0.85074684  0.85865572  0.23780657    -0.22900
F1240       F  0.84132720  0.81635634  0.22816581    -0.24500
C1241       C  0.87386485  0.78610718  0.46871871    -0.11300
C1242       C  0.90253117  0.79829362  0.46896363     0.11300
C1243       C  0.91793030  0.81006312  0.44843273    -0.03100
C1244       C  0.90439972  0.81208198  0.42892866    -0.05800
C1245       C  0.87632258  0.80279553  0.42965561    -0.16600
C1246       C  0.86042949  0.78852374  0.44930582     0.02300
C1247       C  0.91639594  0.80303529  0.49167198     0.12300
C1248       C  0.94869868  0.82166492  0.44760111     0.62900
H1249       H  0.91597389  0.82260027  0.41349393     0.12300
C1250       C  0.82968161  0.77698743  0.44992551     0.55000
H1251       H  0.86246451  0.77672337  0.48449907     0.08100
C1252       C  0.92105985  0.82536649  0.50581045    -0.05700
C1253       C  0.93637004  0.83064157  0.52612478    -0.06500
C1254       C  0.94686631  0.81429525  0.53301876    -0.16100
C1255       C  0.94182160  0.79161837  0.51904625    -0.01600
C1256       C  0.92646490  0.78632359  0.49848786    -0.09200
C1257       C  0.90993962  0.84366521  0.49952678     0.65100
H1258       H  0.94000985  0.84764587  0.53708983     0.10500
C1259       C  0.95307548  0.77358681  0.52535277     0.63500
H1260       H  0.92242078  0.76928131  0.48740064     0.07900
F1261       F  0.82464037  0.79817835  0.44887271    -0.19600
F1262       F  0.81771210  0.76215425  0.46997560    -0.15800
F1263       F  0.81733921  0.75967115  0.43118592    -0.19300
F1264       F  0.95385630  0.80102649  0.45227881    -0.22700
F1265       F  0.96195763  0.84236618  0.46385062    -0.24100
F1266       F  0.95970924  0.83245324  0.42604312    -0.18100
F1267       F  0.93995296  0.75865969  0.54502569    -0.20600
F1268       F  0.98102523  0.78966003  0.52940837    -0.21800
F1269       F  0.94899334  0.75523414  0.50780609    -0.19000
F1270       F  0.91896280  0.86555512  0.51469731    -0.19100
F1271       F  0.88153641  0.82855839  0.50031709    -0.22900
F1272       F  0.91844149  0.85430903  0.47749776    -0.24500
C1273       C  0.78840710  0.97567438  0.72274146    -0.11300
C1274       C  0.78761509  0.99918177  0.72793851     0.11300
C1275       C  0.78507825  0.01442139  0.70997444    -0.03100
C1276       C  0.78364580  0.00551854  0.68703330    -0.05800
C1277       C  0.78533128  0.98232391  0.68143033    -0.16600
C1278       C  0.78709823  0.96665820  0.69983343     0.02300
C1279       C  0.79100936  0.00788874  0.75246812     0.12300
C1280       C  0.78448340  0.04026901  0.71499678     0.62900
H1281       H  0.78186679  0.01726335  0.67319657     0.12300
C1282       C  0.78856604  0.94113796  0.69579091     0.55000
H1283       H  0.79067900  0.96472161  0.73701764     0.08100
C1284       C  0.76928866  0.99469851  0.76864359    -0.05700
C1285       C  0.77484435  0.00217208  0.79208467    -0.06500
C1286       C  0.80146750  0.02170447  0.79983268    -0.16100
C1287       C  0.82311875  0.03533484  0.78340544    -0.01600
C1288       C  0.81734700  0.02808151  0.75989421    -0.09200
C1289       C  0.74076135  0.97180470  0.76138922     0.65100
H1290       H  0.75855143  0.99185087  0.80475746     0.10500
C1291       C  0.85241209  0.05643241  0.79051050     0.63500
H1292       H  0.83358785  0.03746722  0.74707622     0.07900
F1293       F  0.79047365  0.92971591  0.71631320    -0.19600
F1294       F  0.81158594  0.94795079  0.68268071    -0.15800
F1295       F  0.76509547  0.92129556  0.68454237    -0.19300
F1296       F  0.80933048  0.06018272  0.72433906    -0.22700
F1297       F  0.76366659  0.03451076  0.73055885    -0.24100
F1298       F  0.77999711  0.05094455  0.69513925    -0.18100
F1299       F  0.87037694  0.06514552  0.77186139    -0.20600
F1300       F  0.86155873  0.04517375  0.80669446    -0.21800
F1301       F  0.85335435  0.07925258  0.79983744    -0.19000
F1302       F  0.72183955  0.96440871  0.77919197    -0.19100
F1303       F  0.74158829  0.94886052  0.75509294    -0.22900
F1304       F  0.73160151  0.98006540  0.74278614    -0.24500
C1305       C  0.77163584  0.86378906  0.52941929    -0.11300
C1306       C  0.77672167  0.87563976  0.50742182     0.11300
C1307       C  0.78001295  0.90177226  0.50445702    -0.03100
C1308       C  0.78115722  0.91661201  0.52425288    -0.05800
C1309       C  0.77961777  0.90628135  0.54664832    -0.16600
C1310       C  0.77329184  0.87873311  0.54936840     0.02300
C1311       C  0.78222769  0.86202764  0.48823380     0.12300
C1312       C  0.78358606  0.91436762  0.48055581     0.62900
H1313       H  0.78479444  0.93713942  0.52238089     0.12300
C1314       C  0.77003849  0.86548207  0.57295034     0.55000
H1315       H  0.76836427  0.84335872  0.53087111     0.08100
C1316       C  0.80862550  0.86592266  0.48515641    -0.05700
C1317       C  0.81412606  0.85663641  0.46455229    -0.06500
C1318       C  0.79427444  0.84392593  0.44697279    -0.16100
C1319       C  0.76698788  0.83776806  0.45119080    -0.01600
C1320       C  0.76151064  0.84694430  0.47201444    -0.09200
C1321       C  0.83109865  0.88049670  0.50328429     0.65100
H1322       H  0.83448921  0.86015284  0.46170341     0.10500
C1323       C  0.74392622  0.82273047  0.43371694     0.63500
H1324       H  0.74131746  0.84364432  0.47537967     0.07900
F1325       F  0.79404380  0.88038627  0.58550199    -0.19600
F1326       F  0.76445104  0.83884671  0.57109546    -0.15800
F1327       F  0.74843797  0.86441937  0.58489973    -0.19300
F1328       F  0.76072593  0.89761587  0.46717505    -0.22700
F1329       F  0.80666235  0.91720619  0.46984662    -0.24100
F1330       F  0.78662783  0.94005628  0.48162986    -0.18100
F1331       F  0.73944443  0.79679714  0.42966153    -0.20600
F1332       F  0.75075998  0.83738463  0.41320107    -0.21800
F1333       F  0.71943336  0.81950059  0.44156296    -0.19000
F1334       F  0.85568230  0.88335215  0.49620081    -0.19100
F1335       F  0.82315267  0.86554090  0.52364432    -0.22900
F1336       F  0.83585689  0.90647883  0.50760105    -0.24500
C1337       C  0.88456581  0.85177542  0.60916743    -0.11300
C1338       C  0.89355765  0.87676436  0.62061856     0.11300
C1339       C  0.91883820  0.88967793  0.63264407    -0.03100
C1340       C  0.93584627  0.87872119  0.63051371    -0.05800
C1341       C  0.92814574  0.85512283  0.61719222    -0.16600
C1342       C  0.90145896  0.84056791  0.60727144     0.02300
C1343       C  0.87739458  0.89028798  0.61802860     0.12300
C1344       C  0.92796047  0.91526262  0.64718278     0.62900
H1345       H  0.95596232  0.88926865  0.63844935     0.12300
C1346       C  0.89141431  0.81420767  0.59371229     0.55000
H1347       H  0.86475176  0.84191684  0.60063973     0.08100
C1348       C  0.88207723  0.90800486  0.59921298    -0.05700
C1349       C  0.86766703  0.92176571  0.59848730    -0.06500
C1350       C  0.84782269  0.91776885  0.61535063    -0.16100
C1351       C  0.84237563  0.89889451  0.63370248    -0.01600
C1352       C  0.85754651  0.88569974  0.63474621    -0.09200
C1353       C  0.90191007  0.91200534  0.57969207     0.65100
H1354       H  0.87183404  0.93569903  0.58424394     0.10500
C1355       C  0.82090493  0.89253176  0.65218856     0.63500
H1356       H  0.85419901  0.87170047  0.64877158     0.07900
F1357       F  0.90857962  0.81906834  0.57502873    -0.19600
F1358       F  0.86502415  0.80364876  0.58534587    -0.15800
F1359       F  0.89117984  0.79462049  0.60792809    -0.19300
F1360       F  0.90865870  0.90953426  0.66428930    -0.22700
F1361       F  0.93061421  0.93636838  0.63349805    -0.24100
F1362       F  0.95296138  0.92426891  0.65783816    -0.18100
F1363       F  0.79547686  0.88259844  0.64201534    -0.20600
F1364       F  0.82833647  0.91612047  0.66461287    -0.21800
F1365       F  0.81840406  0.87285857  0.66766709    -0.19000
F1366       F  0.90349421  0.93023398  0.56305464    -0.19100
F1367       F  0.89315574  0.88713475  0.56887314    -0.22900
F1368       F  0.92804791  0.92213937  0.58835389    -0.24500
C1369       C  0.16832944  0.98913723  0.26865313    -0.11300
C1370       C  0.15766757  0.00051795  0.25371320     0.11300
C1371       C  0.15040948  0.01909251  0.26234814    -0.03100
C1372       C  0.15373691  0.02537164  0.28610591    -0.05800
C1373       C  0.16397452  0.01364879  0.30138705    -0.16600
C1374       C  0.17214533  0.99566901  0.29237741     0.02300
C1375       C  0.15364909  0.99202194  0.22909773     0.12300
C1376       C  0.13857659  0.03170104  0.24662263     0.62900
H1377       H  0.14745072  0.03890950  0.29303011     0.12300
C1378       C  0.18517262  0.98352290  0.30727866     0.55000
H1379       H  0.17340993  0.97476471  0.26149266     0.08100
C1380       C  0.17553067  0.00372278  0.21293702    -0.05700
C1381       C  0.16966771  0.99587719  0.18957416    -0.06500
C1382       C  0.14281961  0.97681686  0.18204211    -0.16100
C1383       C  0.12110801  0.96451169  0.19848608    -0.01600
C1384       C  0.12709678  0.97213824  0.22189759    -0.09200
C1385       C  0.20476295  0.02473973  0.22029054     0.65100
H1386       H  0.18604277  0.00499021  0.17682400     0.10500
C1387       C  0.09163378  0.94435220  0.19137914     0.63500
H1388       H  0.11091155  0.96316426  0.23482348     0.07900
F1389       F  0.20650092  0.00403391  0.32014906    -0.19600
F1390       F  0.19595361  0.97110982  0.29397863    -0.15800
F1391       F  0.16565142  0.96375646  0.32193010    -0.19300
F1392       F  0.11286339  0.01149161  0.23898626    -0.22700
F1393       F  0.15556484  0.04395351  0.22767643    -0.24100
F1394       F  0.13586694  0.05156246  0.25798073    -0.18100
F1395       F  0.08957918  0.92068759  0.18290090    -0.20600
F1396       F  0.08366946  0.95595911  0.17450148    -0.21800
F1397       F  0.07355396  0.93709724  0.20983899    -0.19000
F1398       F  0.22267644  0.03439863  0.20160748    -0.19100
F1399       F  0.21405809  0.01296340  0.23578169    -0.22900
F1400       F  0.20555382  0.04695667  0.23076356    -0.24500
C1401       C  0.11709538  0.96163553  0.49004933    -0.11300
C1402       C  0.12134485  0.93962708  0.48927939     0.11300
C1403       C  0.13318982  0.93549378  0.46937059    -0.03100
C1404       C  0.13845942  0.95251436  0.44999792    -0.05800
C1405       C  0.13253102  0.97365485  0.45000321    -0.16600
C1406       C  0.12292521  0.97919708  0.47102076     0.02300
C1407       C  0.11030348  0.91997006  0.50888942     0.12300
C1408       C  0.14050055  0.91344429  0.46877092     0.62900
H1409       H  0.14671942  0.94885216  0.43443635     0.12300
C1410       C  0.11829234  0.00301594  0.47381903     0.55000
H1411       H  0.10824510  0.96436728  0.50570753     0.08100
C1412       C  0.12033356  0.92751700  0.53188565    -0.05700
C1413       C  0.10364618  0.91126714  0.55034249    -0.06500
C1414       C  0.07740601  0.88831194  0.54640367    -0.16100
C1415       C  0.06884421  0.87899002  0.52348954    -0.01600
C1416       C  0.08525752  0.89532609  0.50504799    -0.09200
C1417       C  0.14752771  0.95309386  0.53811457     0.65100
H1418       H  0.11018229  0.91797676  0.56800976     0.10500
C1419       C  0.04143674  0.85313814  0.51835100     0.63500
H1420       H  0.07739902  0.89002770  0.48752784     0.07900
F1421       F  0.14229041  0.02745969  0.46864090    -0.19600
F1422       F  0.11094413  0.00517679  0.49627562    -0.15800
F1423       F  0.09732143  0.99937589  0.45938614    -0.19300
F1424       F  0.11697278  0.88765641  0.46997292    -0.22700
F1425       F  0.15722971  0.91691109  0.48739806    -0.24100
F1426       F  0.15441353  0.91468889  0.44865431    -0.18100
F1427       F  0.02073963  0.85893040  0.51896807    -0.20600
F1428       F  0.03593769  0.83299893  0.53450517    -0.21800
F1429       F  0.04160602  0.84281655  0.49664335    -0.19000
F1430       F  0.16324902  0.94551151  0.55049786    -0.19100
F1431       F  0.14262985  0.97000640  0.55186642    -0.22900
F1432       F  0.16261803  0.96788529  0.51899772    -0.24500
C1433       C  0.96486784  0.87133686  0.34195564    -0.11300
C1434       C  0.97892405  0.89996731  0.34398574     0.11300
C1435       C  0.96420526  0.91362140  0.34330735    -0.03100
C1436       C  0.93541955  0.89780159  0.34484107    -0.05800
C1437       C  0.92135001  0.86903826  0.34640853    -0.16600
C1438       C  0.93599909  0.85538550  0.34311047     0.02300
C1439       C  0.00817779  0.91474203  0.35089280     0.12300
C1440       C  0.97898699  0.94473633  0.34209352     0.62900
H1441       H  0.92381104  0.90785493  0.34649682     0.12300
C1442       C  0.92162454  0.82426538  0.34255158     0.55000
H1443       H  0.97679769  0.86154522  0.34156066     0.08100
C1444       C  0.01555603  0.91668815  0.37456281    -0.05700
C1445       C  0.04316672  0.93425062  0.38069453    -0.06500
C1446       C  0.06341855  0.94925611  0.36397195    -0.16100
C1447       C  0.05637828  0.94575814  0.34011799    -0.01600
C1448       C  0.02856714  0.92840816  0.33396709    -0.09200
C1449       C  0.99426041  0.90079774  0.39333369     0.65100
H1450       H  0.04914628  0.93698161  0.39876102     0.10500
C1451       C  0.07783174  0.96106997  0.32137849     0.63500
H1452       H  0.02234317  0.92602604  0.31598768     0.07900
F1453       F  0.90816345  0.81336205  0.36332983    -0.19600
F1454       F  0.93995391  0.81559118  0.33905523    -0.15800
F1455       F  0.90285209  0.81403172  0.32458443    -0.19300
F1456       F  0.99539220  0.95387718  0.32249187    -0.22700
F1457       F  0.99525881  0.95634076  0.36147616    -0.24100
F1458       F  0.96072173  0.95376615  0.34088326    -0.18100
F1459       F  0.09656809  0.95263042  0.32126638    -0.20600
F1460       F  0.09152162  0.98903875  0.32548326    -0.21800
F1461       F  0.06615349  0.95621632  0.29955563    -0.19000
F1462       F  0.00600838  0.90568608  0.41513478    -0.19100
F1463       F  0.98138937  0.87292891  0.38903881    -0.22900
F1464       F  0.97481381  0.90831112  0.39371068    -0.24500
C1465       C  0.12633403  0.16601142  0.71965109    -0.11300
C1466       C  0.15267895  0.17534148  0.72844546     0.11300
C1467       C  0.17544077  0.18593420  0.71325480    -0.03100
C1468       C  0.17127607  0.18843447  0.68968694    -0.05800
C1469       C  0.14500327  0.17940248  0.68069425    -0.16600
C1470       C  0.12192506  0.16750086  0.69583301     0.02300
C1471       C  0.15581029  0.17336785  0.75369564     0.12300
C1472       C  0.20376263  0.19351047  0.72174622     0.62900
H1473       H  0.18860307  0.19689832  0.67786992     0.12300
C1474       C  0.09277377  0.15547002  0.68697227     0.55000
H1475       H  0.10921381  0.15739995  0.73169319     0.08100
C1476       C  0.16037711  0.19465087  0.76901642    -0.05700
C1477       C  0.16454258  0.19201480  0.79264007    -0.06500
C1478       C  0.16267555  0.16811397  0.80158555    -0.16100
C1479       C  0.15619263  0.14594726  0.78611391    -0.01600
C1480       C  0.15357643  0.14941809  0.76231315    -0.09200
C1481       C  0.15979731  0.21950903  0.76045010     0.65100
H1482       H  0.16864147  0.20850728  0.80441850     0.10500
C1483       C  0.15048018  0.11814406  0.79440350     0.63500
H1484       H  0.14932320  0.13323227  0.75010373     0.07900
F1485       F  0.08949308  0.17622363  0.67852259    -0.19600
F1486       F  0.07343085  0.14195992  0.70429280    -0.15800
F1487       F  0.08749483  0.13669662  0.66951187    -0.19300
F1488       F  0.20256811  0.17039869  0.73054098    -0.22700
F1489       F  0.21266331  0.21322140  0.73893707    -0.24100
F1490       F  0.22308181  0.20382370  0.70407556    -0.18100
F1491       F  0.13006236  0.10789618  0.81112567    -0.20600
F1492       F  0.17415091  0.12068113  0.80338508    -0.21800
F1493       F  0.14150942  0.09904395  0.77662409    -0.19000
F1494       F  0.16478138  0.23797252  0.77812793    -0.19100
F1495       F  0.13418452  0.21102247  0.75129401    -0.22900
F1496       F  0.17948400  0.23309544  0.74346003    -0.24500
C1497       C  0.20516071  0.16028591  0.50636186    -0.11300
C1498       C  0.19177939  0.13320708  0.49806648     0.11300
C1499       C  0.17153234  0.11147065  0.51184183    -0.03100
C1500       C  0.16298911  0.11805112  0.53230032    -0.05800
C1501       C  0.17427384  0.14535631  0.53941542    -0.16600
C1502       C  0.19665589  0.16683796  0.52705667     0.02300
C1503       C  0.19507707  0.12830989  0.47344203     0.12300
C1504       C  0.15809159  0.08155753  0.50446023     0.62900
H1505       H  0.14658806  0.10189572  0.54257294     0.12300
C1506       C  0.21038495  0.19648479  0.53495541     0.55000
H1507       H  0.22104752  0.17638554  0.49571189     0.08100
C1508       C  0.17880936  0.13092408  0.45635017    -0.05700
C1509       C  0.17497609  0.11746256  0.43512928    -0.06500
C1510       C  0.18696477  0.10188140  0.43073794    -0.16100
C1511       C  0.20617088  0.10237276  0.44648224    -0.01600
C1512       C  0.21013554  0.11595682  0.46781474    -0.09200
C1513       C  0.16398727  0.14616992  0.46110358     0.65100
H1514       H  0.16082558  0.11715775  0.42247302     0.10500
C1515       C  0.22070027  0.08696872  0.44138731     0.63500
H1516       H  0.22303536  0.11492851  0.48099586     0.07900
F1517       F  0.23052389  0.21421297  0.51955144    -0.19600
F1518       F  0.22262980  0.19942061  0.55627618    -0.15800
F1519       F  0.19104583  0.20406396  0.53679933    -0.19300
F1520       F  0.17790259  0.07466971  0.50217850    -0.22700
F1521       F  0.14474331  0.07746477  0.48353050    -0.24100
F1522       F  0.13896915  0.06387293  0.52054998    -0.18100
F1523       F  0.23835961  0.08989248  0.45908794    -0.20600
F1524       F  0.23595920  0.09703281  0.42123706    -0.21800
F1525       F  0.20157168  0.05926682  0.43865107    -0.19000
F1526       F  0.14964566  0.14645299  0.44189894    -0.19100
F1527       F  0.18288335  0.17313148  0.46694789    -0.22900
F1528       F  0.14545208  0.13375901  0.47910934    -0.24500
C1529       C  0.98267817  0.09583964  0.60789468    -0.11300
C1530       C  0.97569636  0.09551803  0.63122070     0.11300
C1531       C  0.99657746  0.10827375  0.64812627    -0.03100
C1532       C  0.02420546  0.12154309  0.64081548    -0.05800
C1533       C  0.03118472  0.12171684  0.61739149    -0.16600
C1534       C  0.01008057  0.10926406  0.60048293     0.02300
C1535       C  0.94599584  0.08035044  0.63673791     0.12300
C1536       C  0.98971939  0.10736121  0.67366552     0.62900
H1537       H  0.04058983  0.13139242  0.65341465     0.12300
C1538       C  0.01615444  0.11093302  0.57462077     0.55000
H1539       H  0.96619654  0.08543640  0.59540460     0.08100
C1540       C  0.92893883  0.09019690  0.62955228    -0.05700
C1541       C  0.90054109  0.07136174  0.62748114    -0.06500
C1542       C  0.88920457  0.04341815  0.63243322    -0.16100
C1543       C  0.90561062  0.03488458  0.64360518    -0.01600
C1544       C  0.93406939  0.05330405  0.64469370    -0.09200
C1545       C  0.94085407  0.12003237  0.62275358     0.65100
H1546       H  0.88761893  0.07782170  0.61959612     0.10500
C1547       C  0.89419338  0.00642962  0.65376141     0.63500
H1548       H  0.94717910  0.04599969  0.65054564     0.07900
F1549       F  0.99265324  0.10165865  0.56144038    -0.19600
F1550       F  0.02707168  0.09492747  0.56922182    -0.15800
F1551       F  0.03455697  0.13790435  0.56835953    -0.19300
F1552       F  0.97760279  0.08070750  0.68169652    -0.22700
F1553       F  0.97176624  0.11648105  0.67695688    -0.24100
F1554       F  0.01299063  0.12376001  0.68679205    -0.18100
F1555       F  0.90431665  0.00882279  0.67597145    -0.20600
F1556       F  0.90241256  0.99187986  0.64030349    -0.21800
F1557       F  0.86579632  0.99180265  0.65525885    -0.19000
F1558       F  0.92041492  0.12575334  0.61880890    -0.19100
F1559       F  0.95633318  0.12605337  0.60274076    -0.22900
F1560       F  0.95737733  0.13701252  0.64038457    -0.24500
C1561       C  0.11022481  0.04315235  0.64712008    -0.11300
C1562       C  0.10189866  0.02322129  0.62959683     0.11300
C1563       C  0.10190697  0.03065444  0.60617076    -0.03100
C1564       C  0.11068694  0.05805169  0.60105113    -0.05800
C1565       C  0.11839256  0.07792455  0.61848715    -0.16600
C1566       C  0.11831332  0.07057423  0.64194472     0.02300
C1567       C  0.08979679  0.99393142  0.63597258     0.12300
C1568       C  0.09110928  0.00942737  0.58673483     0.62900
H1569       H  0.11063440  0.06405751  0.58325719     0.12300
C1570       C  0.12524075  0.09115882  0.66135420     0.55000
H1571       H  0.10941239  0.03679958  0.66492420     0.08100
C1572       C  0.10488417  0.98062844  0.63474755    -0.05700
C1573       C  0.09025306  0.95169933  0.63280545    -0.06500
C1574       C  0.06134416  0.93630524  0.63305748    -0.16100
C1575       C  0.04695186  0.94956412  0.63890801    -0.01600
C1576       C  0.06136325  0.97832601  0.63961781    -0.09200
C1577       C  0.13607736  0.99704707  0.63501659     0.65100
H1578       H  0.10116006  0.94125831  0.62921923     0.10500
C1579       C  0.01629275  0.93422111  0.64338875     0.63500
H1580       H  0.05010491  0.98871404  0.64162836     0.07900
F1581       F  0.15242192  0.11219551  0.65955354    -0.19600
F1582       F  0.12140965  0.07919655  0.68297334    -0.15800
F1583       F  0.10851907  0.10197367  0.65991918    -0.19300
F1584       F  0.06348646  0.99050151  0.59024762    -0.22700
F1585       F  0.10525091  0.99582995  0.58611678    -0.24100
F1586       F  0.09395542  0.02134718  0.56522478    -0.18100
F1587       F  0.01105400  0.94473518  0.66303017    -0.20600
F1588       F  0.00557061  0.90650588  0.64710155    -0.21800
F1589       F  0.00319234  0.93754163  0.62469074    -0.19000
F1590       F  0.14675011  0.98014670  0.63403839    -0.19100
F1591       F  0.14503597  0.01215385  0.65529901    -0.22900
F1592       F  0.14632254  0.01485729  0.61639575    -0.24500
C1593       C  0.98951629  0.17667629  0.26906707    -0.11300
C1594       C  0.97287198  0.18247522  0.25557600     0.11300
C1595       C  0.94974155  0.18157286  0.26567501    -0.03100
C1596       C  0.94555643  0.17722544  0.28976063    -0.05800
C1597       C  0.96302480  0.17255409  0.30348764    -0.16600
C1598       C  0.98463489  0.17101876  0.29277760     0.02300
C1599       C  0.97854205  0.18557405  0.23038001     0.12300
C1600       C  0.92940787  0.18461688  0.25104563     0.62900
H1601       H  0.92854531  0.17733838  0.29806027     0.12300
C1602       C  0.00129447  0.16155916  0.30581941     0.55000
H1603       H  0.00617014  0.17602144  0.26060311     0.08100
C1604       C  0.99946650  0.21050882  0.22036321    -0.05700
C1605       C  0.00563370  0.21074941  0.19663678    -0.06500
C1606       C  0.99197926  0.18674224  0.18320107    -0.16100
C1607       C  0.97201099  0.16164746  0.19362920    -0.01600
C1608       C  0.96547354  0.16157371  0.21705999    -0.09200
C1609       C  0.01543737  0.23645972  0.23479853     0.65100
H1610       H  0.02117996  0.22959277  0.18840602     0.10500
C1611       C  0.95857058  0.13481137  0.18031274     0.63500
H1612       H  0.95045827  0.14255169  0.22541584     0.07900
F1613       F  0.01897858  0.18169462  0.32114630    -0.19600
F1614       F  0.01696804  0.15602842  0.29099889    -0.15800
F1615       F  0.98366865  0.13764035  0.31777451    -0.19300
F1616       F  0.91812890  0.16422800  0.23435971    -0.22700
F1617       F  0.94257390  0.20993912  0.24025767    -0.24100
F1618       F  0.90807122  0.18247540  0.26428142    -0.18100
F1619       F  0.94359598  0.11232594  0.19466171    -0.20600
F1620       F  0.97863353  0.13200214  0.16948266    -0.21800
F1621       F  0.94089498  0.13466471  0.16394084    -0.19000
F1622       F  0.03473199  0.25843941  0.22165954    -0.19100
F1623       F  0.02915742  0.23224752  0.25245646    -0.22900
F1624       F  0.99763349  0.24342393  0.24434353    -0.24500
C1625       C  0.83474382  0.05487077  0.44955492    -0.11300
C1626       C  0.84350312  0.06432969  0.47216007     0.11300
C1627       C  0.86786281  0.09010728  0.47589103    -0.03100
C1628       C  0.88297860  0.10544511  0.45656688    -0.05800
C1629       C  0.87572267  0.09489530  0.43402000    -0.16600
C1630       C  0.85093936  0.06939040  0.43025073     0.02300
C1631       C  0.83132226  0.04415304  0.49112604     0.12300
C1632       C  0.87941239  0.10014745  0.50009569     0.62900
H1633       H  0.90214328  0.12475595  0.45902169     0.12300
C1634       C  0.84287474  0.05635699  0.40636845     0.55000
H1635       H  0.81643415  0.03474736  0.44733881     0.08100
C1636       C  0.80932062  0.04066081  0.50503866    -0.05700
C1637       C  0.80258604  0.02428628  0.52504598    -0.06500
C1638       C  0.81721089  0.01158830  0.53111815    -0.16100
C1639       C  0.83830818  0.01403131  0.51625955    -0.01600
C1640       C  0.84424370  0.02962306  0.49604643    -0.09200
C1641       C  0.79327774  0.05416426  0.49875983     0.65100
H1642       H  0.78651322  0.02206454  0.53656740     0.10500
C1643       C  0.85627402  0.00247958  0.52241577     0.63500
H1644       H  0.86056748  0.03232022  0.48458751     0.07900
F1645       F  0.81904813  0.03064189  0.40696839    -0.19600
F1646       F  0.86360064  0.05323802  0.39739921    -0.15800
F1647       F  0.83843431  0.07285895  0.39183267    -0.19300
F1648       F  0.88716589  0.08306129  0.50974136    -0.22700
F1649       F  0.85991324  0.10036988  0.51417420    -0.24100
F1650       F  0.90228951  0.12650027  0.49973112    -0.18100
F1651       F  0.84078531  0.97411239  0.52211528    -0.20600
F1652       F  0.86763608  0.01156476  0.54416835    -0.21800
F1653       F  0.87776545  0.01074543  0.50688296    -0.19000
F1654       F  0.77246890  0.04783505  0.51456993    -0.19100
F1655       F  0.78152487  0.04514294  0.47714905    -0.22900
F1656       F  0.81049012  0.08239159  0.49818961    -0.24500
C1657       C  0.01695788  0.18140717  0.48952633    -0.11300
C1658       C  0.04492758  0.20107378  0.48640896     0.11300
C1659       C  0.05418978  0.21543764  0.46515912    -0.03100
C1660       C  0.03530586  0.20764497  0.44688595    -0.05800
C1661       C  0.00787249  0.18604957  0.44938667    -0.16600
C1662       C  0.99796532  0.17420327  0.47149432     0.02300
C1663       C  0.06410140  0.20273447  0.50445279     0.12300
C1664       C  0.08396240  0.23817186  0.46153720     0.62900
H1665       H  0.04238996  0.21694224  0.42997698     0.12300
C1666       C  0.96752961  0.15475382  0.47628296     0.55000
H1667       H  0.01028499  0.17063591  0.50591389     0.08100
C1668       C  0.06519594  0.21332796  0.52686355    -0.05700
C1669       C  0.07908907  0.20830850  0.54444011    -0.06500
C1670       C  0.09183263  0.19321747  0.54007084    -0.16100
C1671       C  0.09347184  0.18568964  0.51687868    -0.01600
C1672       C  0.07868192  0.18974434  0.49967516    -0.09200
C1673       C  0.05080759  0.22879860  0.53237127     0.65100
H1674       H  0.07839900  0.21454152  0.56204875     0.10500
C1675       C  0.10993120  0.17269587  0.51000090     0.63500
H1676       H  0.07731482  0.18149407  0.48244821     0.07900
F1677       F  0.96224804  0.15030609  0.49981721    -0.19600
F1678       F  0.95817755  0.12958015  0.46585981    -0.15800
F1679       F  0.95295379  0.16610662  0.46786275    -0.19300
F1680       F  0.10082902  0.22750372  0.46166388    -0.22700
F1681       F  0.09198696  0.25744732  0.47903124    -0.24100
F1682       F  0.08766924  0.25148680  0.44059493    -0.18100
F1683       F  0.13473850  0.18524076  0.52168157    -0.20600
F1684       F  0.09511917  0.14492026  0.51502593    -0.21800
F1685       F  0.11577762  0.17565946  0.48649330    -0.19000
F1686       F  0.05826859  0.24124188  0.55392941    -0.19100
F1687       F  0.02263973  0.21096514  0.53227824    -0.22900
F1688       F  0.05771376  0.24908211  0.51602347    -0.24500
C1689       C  0.85953137  0.00996786  0.34008184    -0.11300
C1690       C  0.86907767  0.99419376  0.35014504     0.11300
C1691       C  0.89550029  0.00726165  0.36026519    -0.03100
C1692       C  0.91043882  0.03593023  0.36203855    -0.05800
C1693       C  0.89982621  0.05194177  0.35432425    -0.16600
C1694       C  0.87466637  0.03891192  0.34169267     0.02300
C1695       C  0.85097274  0.96395077  0.35104993     0.12300
C1696       C  0.90756717  0.99092963  0.36981562     0.62900
H1697       H  0.93024901  0.04602067  0.37054771     0.12300
C1698       C  0.86338017  0.05498053  0.33034324     0.55000
H1699       H  0.83962392  0.99929157  0.33171708     0.08100
C1700       C  0.83379940  0.95083809  0.37048384    -0.05700
C1701       C  0.82447005  0.92300908  0.37446225    -0.06500
C1702       C  0.83215763  0.90860861  0.35969925    -0.16100
C1703       C  0.84633056  0.92078088  0.33881135    -0.01600
C1704       C  0.85522031  0.94843336  0.33460721    -0.09200
C1705       C  0.82689756  0.96667237  0.38758971     0.65100
H1706       H  0.81310333  0.91299181  0.39011244     0.10500
C1707       C  0.85294333  0.90486779  0.32161270     0.63500
H1708       H  0.86786653  0.95885335  0.31960399     0.07900
F1709       F  0.85702421  0.06824505  0.34701164    -0.19600
F1710       F  0.83971815  0.03809345  0.31780943    -0.15800
F1711       F  0.88271494  0.07405932  0.31514515    -0.19300
F1712       F  0.91053465  0.97630725  0.35211256    -0.22700
F1713       F  0.89050809  0.97283863  0.38670311    -0.24100
F1714       F  0.93317589  0.00777492  0.37966081    -0.18100
F1715       F  0.86460233  0.91969341  0.30149903    -0.20600
F1716       F  0.82904902  0.88068486  0.31571920    -0.21800
F1717       F  0.87124651  0.89873747  0.33129746    -0.19000
F1718       F  0.80944825  0.94986340  0.40497654    -0.19100
F1719       F  0.81402580  0.97811120  0.37608661    -0.22900
F1720       F  0.85061247  0.98742453  0.39786519    -0.24500
C1721       C  0.07005044  0.08336199  0.35207005    -0.11300
C1722       C  0.08558155  0.11168369  0.35642911     0.11300
C1723       C  0.11433665  0.12485085  0.35952158    -0.03100
C1724       C  0.12636081  0.10869058  0.35978723    -0.05800
C1725       C  0.11042239  0.07990195  0.35758145    -0.16600
C1726       C  0.08193176  0.06711524  0.35254049     0.02300
C1727       C  0.07037444  0.12605693  0.35984863     0.12300
C1728       C  0.13203119  0.15558554  0.36366049     0.62900
H1729       H  0.14807138  0.11832409  0.36360698     0.12300
C1730       C  0.06370483  0.03641257  0.34838569     0.55000
H1731       H  0.04807802  0.07376187  0.34954694     0.08100
C1732       C  0.05607221  0.12999785  0.34168818    -0.05700
C1733       C  0.03665084  0.13720961  0.34741444    -0.06500
C1734       C  0.03185214  0.14145694  0.37042502    -0.16100
C1735       C  0.04772436  0.13968280  0.38836401    -0.01600
C1736       C  0.06645544  0.13156623  0.38277713    -0.09200
C1737       C  0.05995987  0.12627397  0.31619860     0.65100
H1738       H  0.02454214  0.13866545  0.33378550     0.10500
C1739       C  0.04447980  0.14589910  0.41336315     0.63500
H1740       H  0.07714499  0.12800034  0.39649834     0.07900
F1741       F  0.07711501  0.02739066  0.33435574    -0.19600
F1742       F  0.03946193  0.02994431  0.33744501    -0.15800
F1743       F  0.05705229  0.02255966  0.36929068    -0.19300
F1744       F  0.12747308  0.16172105  0.38578619    -0.22700
F1745       F  0.12568328  0.16950688  0.34773010    -0.24100
F1746       F  0.15974424  0.16493648  0.36144975    -0.18100
F1747       F  0.01844696  0.12684692  0.42134623    -0.20600
F1748       F  0.04837736  0.17188724  0.41473516    -0.21800
F1749       F  0.06344039  0.14516339  0.42778895    -0.19000
F1750       F  0.06535774  0.14952173  0.30415293    -0.19100
F1751       F  0.03606857  0.10393731  0.30764234    -0.22900
F1752       F  0.08150687  0.12225535  0.31211472    -0.24500
C1753       C  0.47187225  0.61897576  0.14293829    -0.11300
C1754       C  0.45113420  0.61617687  0.15786925     0.11300
C1755       C  0.43549746  0.62797348  0.15170648    -0.03100
C1756       C  0.44018938  0.64089815  0.13006784    -0.05800
C1757       C  0.46019099  0.64289041  0.11448146    -0.16600
C1758       C  0.47683343  0.63225564  0.12127466     0.02300
C1759       C  0.44450087  0.59915723  0.17914708     0.12300
C1760       C  0.41376020  0.62680755  0.16786945     0.62900
H1761       H  0.42775956  0.64925642  0.12500935     0.12300
C1762       C  0.50009803  0.63533180  0.10619576     0.55000
H1763       H  0.48378243  0.61012041  0.14825273     0.08100
C1764       C  0.42612438  0.57032286  0.17837028    -0.05700
C1765       C  0.41393648  0.55634366  0.19915265    -0.06500
C1766       C  0.41939662  0.57043058  0.22026820    -0.16100
C1767       C  0.44050425  0.59846338  0.22142371    -0.01600
C1768       C  0.45311045  0.61243224  0.20068245    -0.09200
C1769       C  0.41814729  0.55477764  0.15553774     0.65100
H1770       H  0.39800043  0.53478485  0.19876849     0.10500
C1771       C  0.44800617  0.61384345  0.24428750     0.63500
H1772       H  0.46785241  0.63434966  0.20091768     0.07900
F1773       F  0.48955954  0.61948609  0.08642784    -0.19600
F1774       F  0.51581364  0.62692083  0.11754643    -0.15800
F1775       F  0.51721537  0.66264613  0.10020857    -0.19300
F1776       F  0.42610927  0.64142696  0.18787406    -0.22700
F1777       F  0.39462034  0.59986500  0.17357307    -0.24100
F1778       F  0.39984069  0.63809391  0.15786430    -0.18100
F1779       F  0.46985250  0.64061419  0.24192655    -0.20600
F1780       F  0.45537149  0.60060655  0.26006091    -0.21800
F1781       F  0.42575520  0.61460198  0.25286512    -0.19000
F1782       F  0.39963598  0.52696325  0.15866650    -0.19100
F1783       F  0.44133785  0.55781399  0.14491018    -0.22900
F1784       F  0.40616382  0.56486712  0.14107231    -0.24500
C1785       C  0.66763347  0.75194340  0.06696573    -0.11300
C1786       C  0.64736190  0.75041913  0.08168130     0.11300
C1787       C  0.65375027  0.75933296  0.10494211    -0.03100
C1788       C  0.68154005  0.77411313  0.11149228    -0.05800
C1789       C  0.70226831  0.77763516  0.09611987    -0.16600
C1790       C  0.69506730  0.76461769  0.07412875     0.02300
C1791       C  0.62000593  0.74057833  0.07171570     0.12300
C1792       C  0.63134734  0.75240828  0.12276575     0.62900
H1793       H  0.68735220  0.78314074  0.12862625     0.12300
C1794       C  0.71604166  0.76403529  0.05833642     0.55000
H1795       H  0.66179101  0.74358283  0.04962146     0.08100
C1796       C  0.61212831  0.75917465  0.06463747    -0.05700
C1797       C  0.58526930  0.74844941  0.05650782    -0.06500
C1798       C  0.56741130  0.72009013  0.05268640    -0.16100
C1799       C  0.57733379  0.70208573  0.05619259    -0.01600
C1800       C  0.60304103  0.71254987  0.06685684    -0.09200
C1801       C  0.63260809  0.79005028  0.06394149     0.65100
H1802       H  0.57827934  0.76236048  0.05266059     0.10500
C1803       C  0.56228646  0.67273055  0.04715127     0.63500
H1804       H  0.61049796  0.69905117  0.07090894     0.07900
F1805       F  0.73739925  0.79040565  0.05367667    -0.19600
F1806       F  0.70468461  0.75120673  0.03741789    -0.15800
F1807       F  0.72612920  0.74956725  0.06918708    -0.19300
F1808       F  0.61463299  0.72416875  0.12452302    -0.22700
F1809       F  0.61541724  0.76303634  0.11641311    -0.24100
F1810       F  0.64223699  0.76270671  0.14445735    -0.18100
F1811       F  0.57898111  0.66178681  0.04727259    -0.20600
F1812       F  0.55409987  0.67220149  0.02450101    -0.21800
F1813       F  0.53957428  0.65610570  0.06070554    -0.19000
F1814       F  0.62062378  0.80428330  0.05608604    -0.19100
F1815       F  0.65387743  0.79543646  0.04900689    -0.22900
F1816       F  0.64340058  0.80010535  0.08561985    -0.24500
C1817       C  0.28396140  0.49533470  0.15564374    -0.11300
C1818       C  0.25563877  0.47625130  0.15693039     0.11300
C1819       C  0.24456656  0.45949530  0.17679508    -0.03100
C1820       C  0.26156838  0.46545344  0.19633909    -0.05800
C1821       C  0.28926532  0.48716123  0.19611282    -0.16600
C1822       C  0.30121366  0.50055186  0.17478262     0.02300
C1823       C  0.23801493  0.47659085  0.13819612     0.12300
C1824       C  0.21481944  0.43594000  0.17748132     0.62900
H1825       H  0.25282828  0.45455329  0.21224391     0.12300
C1826       C  0.33174804  0.52111729  0.17200183     0.55000
H1827       H  0.29227799  0.50719619  0.13998235     0.08100
C1828       C  0.22854004  0.49501409  0.13909232    -0.05700
C1829       C  0.21367082  0.49605667  0.12023759    -0.06500
C1830       C  0.20876525  0.48024967  0.09993766    -0.16100
C1831       C  0.21847239  0.46169719  0.09915401    -0.01600
C1832       C  0.23272019  0.46010715  0.11853565    -0.09200
C1833       C  0.23518865  0.51449336  0.15949501     0.65100
H1834       H  0.20678348  0.51040818  0.12103777     0.10500
C1835       C  0.21499265  0.44432137  0.07795603     0.63500
H1836       H  0.24067644  0.44655065  0.11829240     0.07900
F1837       F  0.33753239  0.54706914  0.17802850    -0.19600
F1838       F  0.33996148  0.52179195  0.14926748    -0.15800
F1839       F  0.34683579  0.51394973  0.18576823    -0.19300
F1840       F  0.21016071  0.41793954  0.15951628    -0.22700
F1841       F  0.19730925  0.44570474  0.17511669    -0.24100
F1842       F  0.20852902  0.42145996  0.19808390    -0.18100
F1843       F  0.22799131  0.46118065  0.05909491    -0.20600
F1844       F  0.18735413  0.42686091  0.07325377    -0.21800
F1845       F  0.22636452  0.42826201  0.08116227    -0.19000
F1846       F  0.22305804  0.52998994  0.15734153    -0.19100
F1847       F  0.26329887  0.53241635  0.16091971    -0.22900
F1848       F  0.22587558  0.49983010  0.17990508    -0.24500
C1849       C  0.34413670  0.57639564  0.03342618    -0.11300
C1850       C  0.33682497  0.58154903  0.01166233     0.11300
C1851       C  0.35719438  0.60152039  0.99681744    -0.03100
C1852       C  0.38435858  0.61698063  0.00492808    -0.05800
C1853       C  0.39109442  0.61348078  0.02748351    -0.16600
C1854       C  0.37109666  0.59240424  0.04180171     0.02300
C1855       C  0.30715855  0.56828599  0.00676550     0.12300
C1856       C  0.35003280  0.60690687  0.97290388     0.62900
H1857       H  0.40015675  0.63333785  0.99436148     0.12300
C1858       C  0.37818928  0.58734662  0.06591303     0.55000
H1859       H  0.32810808  0.56087007  0.04440839     0.08100
C1860       C  0.29027710  0.53978482  0.00255809    -0.05700
C1861       C  0.26189140  0.52703836  0.00647533    -0.06500
C1862       C  0.25002587  0.54208147  0.01388211    -0.16100
C1863       C  0.26663018  0.57123207  0.01483039    -0.01600
C1864       C  0.29510479  0.58370448  0.01183915    -0.09200
C1865       C  0.30139821  0.52184723  0.99532486     0.65100
H1866       H  0.24922127  0.50485636  0.00509208     0.10500
C1867       C  0.25504212  0.58937167  0.02006249     0.63500
H1868       H  0.30841186  0.60551262  0.01517219     0.07900
F1869       F  0.35623239  0.56443687  0.07618058    -0.19600
F1870       F  0.38546608  0.60972202  0.08004738    -0.15800
F1871       F  0.39996929  0.58318268  0.06453050    -0.19300
F1872       F  0.33269438  0.61695590  0.97477223    -0.22700
F1873       F  0.33706431  0.58273150  0.96030644    -0.24100
F1874       F  0.37321672  0.62594363  0.96075378    -0.18100
F1875       F  0.27307475  0.61625163  0.01323857    -0.20600
F1876       F  0.25047847  0.58944739  0.04361394    -0.21800
F1877       F  0.23067197  0.57997585  0.00819151    -0.19000
F1878       F  0.28637055  0.50561973  0.97673198    -0.19100
F1879       F  0.29882770  0.50503012  0.01359802    -0.22900
F1880       F  0.32869032  0.53695868  0.98861068    -0.24500
C1881       C  0.07811048  0.36857529  0.08815747    -0.11300
C1882       C  0.06154809  0.34698007  0.07295124     0.11300
C1883       C  0.05829453  0.35285934  0.04968505    -0.03100
C1884       C  0.07349784  0.38028250  0.04204342    -0.05800
C1885       C  0.09165701  0.40153498  0.05683943    -0.16600
C1886       C  0.09372833  0.39585485  0.08034684     0.02300
C1887       C  0.05130272  0.31870340  0.08128330     0.12300
C1888       C  0.04020232  0.33117672  0.03195963     0.62900
H1889       H  0.07203070  0.38498433  0.02411534     0.12300
C1890       C  0.11331123  0.41843945  0.09678914     0.55000
H1891       H  0.08019042  0.36360601  0.10583513     0.08100
C1892       C  0.06722840  0.30647482  0.07847713    -0.05700
C1893       C  0.05622204  0.27931696  0.08589304    -0.06500
C1894       C  0.03029338  0.26432075  0.09660374    -0.16100
C1895       C  0.01490229  0.27710169  0.10046903    -0.01600
C1896       C  0.02574137  0.30423914  0.09255134    -0.09200
C1897       C  0.09598561  0.32227520  0.06809476     0.65100
H1898       H  0.06792488  0.26947785  0.08330641     0.10500
C1899       C  0.98766180  0.26262195  0.11337853     0.63500
H1900       H  0.01427248  0.31436048  0.09489025     0.07900
F1901       F  0.14008902  0.42880577  0.08958065    -0.19600
F1902       F  0.11088799  0.40893656  0.11924648    -0.15800
F1903       F  0.10786064  0.43937636  0.09700546    -0.19300
F1904       F  0.02207770  0.33777532  0.02260583    -0.22700
F1905       F  0.02493087  0.30502860  0.04112828    -0.24100
F1906       F  0.05651461  0.33080777  0.01434252    -0.18100
F1907       F  0.99045351  0.25208448  0.13405888    -0.20600
F1908       F  0.96783802  0.24149610  0.09993038    -0.21800
F1909       F  0.97862968  0.28033513  0.11853574    -0.19000
F1910       F  0.10792699  0.30650928  0.06704492    -0.19100
F1911       F  0.11265994  0.34513880  0.08153620    -0.22900
F1912       F  0.09502191  0.33060669  0.04584427    -0.24500
C1913       C  0.18281402  0.55088036  0.29003258    -0.11300
C1914       C  0.21149284  0.56691438  0.28789084     0.11300
C1915       C  0.22453317  0.59574768  0.28520639    -0.03100
C1916       C  0.20806475  0.60731370  0.28324637    -0.05800
C1917       C  0.17916389  0.59111637  0.28383797    -0.16600
C1918       C  0.16627478  0.56247587  0.28832607     0.02300
C1919       C  0.22685557  0.55266401  0.28444668     0.12300
C1920       C  0.25570046  0.61417983  0.28385890     0.62900
H1921       H  0.21769892  0.62918231  0.28028527     0.12300
C1922       C  0.13525105  0.54387316  0.29017404     0.55000
H1923       H  0.17339848  0.52888128  0.29190402     0.08100
C1924       C  0.23641951  0.54357635  0.30292483    -0.05700
C1925       C  0.25362699  0.53327470  0.29776492    -0.06500
C1926       C  0.26077030  0.53144268  0.27479704    -0.16100
C1927       C  0.24903042  0.53820456  0.25630250    -0.01600
C1928       C  0.23210736  0.54858244  0.26153040    -0.09200
C1929       C  0.22832889  0.54466775  0.32778712     0.65100
H1930       H  0.26245065  0.52757067  0.31161862     0.10500
C1931       C  0.25439643  0.53460346  0.23107785     0.63500
H1932       H  0.22371603  0.55479309  0.24768217     0.07900
F1933       F  0.12727010  0.51671178  0.29376921    -0.19600
F1934       F  0.12299449  0.54513253  0.26994856    -0.15800
F1935       F  0.12576118  0.55206273  0.30871177    -0.19300
F1936       F  0.26576343  0.60706735  0.26504456    -0.22700
F1937       F  0.26735921  0.61149350  0.30384946    -0.24100
F1938       F  0.26402457  0.64160432  0.28153486    -0.18100
F1939       F  0.23750428  0.53818815  0.21622762    -0.20600
F1940       F  0.24946177  0.50839720  0.22768428    -0.21800
F1941       F  0.28131587  0.55363820  0.22515456    -0.19000
F1942       F  0.24042964  0.53556006  0.34318015    -0.19100
F1943       F  0.20012059  0.52807486  0.33013014    -0.22900
F1944       F  0.23625969  0.57126525  0.33375707    -0.24500
C1945       C  0.10009003  0.56329991  0.16520880    -0.11300
C1946       C  0.09240063  0.53607286  0.16947788     0.11300
C1947       C  0.08575518  0.52550269  0.19228482    -0.03100
C1948       C  0.09013683  0.54370330  0.21061053    -0.05800
C1949       C  0.10089120  0.57178298  0.20647313    -0.16600
C1950       C  0.10367822  0.58124732  0.18329289     0.02300
C1951       C  0.09617294  0.52124217  0.15017062     0.12300
C1952       C  0.07484980  0.49541243  0.19715446     0.62900
H1953       H  0.08736580  0.53656024  0.22835734     0.12300
C1954       C  0.11245787  0.61055192  0.17697219     0.55000
H1955       H  0.10478082  0.57099846  0.14757863     0.08100
C1956       C  0.08061829  0.51424760  0.12949734    -0.05700
C1957       C  0.09107564  0.50886779  0.10941868    -0.06500
C1958       C  0.11632168  0.51005898  0.10954784    -0.16100
C1959       C  0.13069069  0.51487234  0.13077860    -0.01600
C1960       C  0.12040040  0.52064809  0.15065187    -0.09200
C1961       C  0.05379442  0.51362912  0.12751884     0.65100
H1962       H  0.07995726  0.50487587  0.09325961     0.10500
C1963       C  0.15710733  0.51459634  0.13263450     0.63500
H1964       H  0.13241510  0.52684012  0.16643972     0.07900
F1965       F  0.09970070  0.61086611  0.15669449    -0.19600
F1966       F  0.14060842  0.62581840  0.17362158    -0.15800
F1967       F  0.10533982  0.62282445  0.19397642    -0.19300
F1968       F  0.09496835  0.48937625  0.19278746    -0.22700
F1969       F  0.05244669  0.47926516  0.18309433    -0.24100
F1970       F  0.06651395  0.48871233  0.21999226    -0.18100
F1971       F  0.17858507  0.53796460  0.12250830    -0.20600
F1972       F  0.15384958  0.49145323  0.12176515    -0.21800
F1973       F  0.16409716  0.51400114  0.15548923    -0.19000
F1974       F  0.03435310  0.48954162  0.11673469    -0.19100
F1975       F  0.05798904  0.53568233  0.11430007    -0.22900
F1976       F  0.04328030  0.51475033  0.14884700    -0.24500
C1977       C  0.32276130  0.75730119  0.28702479    -0.11300
C1978       C  0.30993467  0.77248545  0.28890206     0.11300
C1979       C  0.32599708  0.80119376  0.29225387    -0.03100
C1980       C  0.35475858  0.81436930  0.28999993    -0.05800
C1981       C  0.36753454  0.79945986  0.28495758    -0.16600
C1982       C  0.35145563  0.77025983  0.28523322     0.02300
C1983       C  0.28001258  0.75787689  0.28428198     0.12300
C1984       C  0.31266510  0.81764517  0.29773666     0.62900
H1985       H  0.36725148  0.83658318  0.29072448     0.12300
C1986       C  0.36402414  0.75255407  0.28293842     0.55000
H1987       H  0.30994640  0.73516143  0.28530907     0.08100
C1988       C  0.27011120  0.75248808  0.26120036    -0.05700
C1989       C  0.24188091  0.73460060  0.25752984    -0.06500
C1990       C  0.22347889  0.72214942  0.27604418    -0.16100
C1991       C  0.23298010  0.72910183  0.29911250    -0.01600
C1992       C  0.26142757  0.74682153  0.30290186    -0.09200
C1993       C  0.28939398  0.76449572  0.24046026     0.65100
H1994       H  0.23402798  0.72907881  0.24002097     0.10500
C1995       C  0.21327727  0.71701354  0.31943495     0.63500
H1996       H  0.26950774  0.75135266  0.32036742     0.07900
F1997       F  0.37026480  0.75119062  0.25998516    -0.19600
F1998       F  0.34605250  0.72602084  0.29060846    -0.15800
F1999       F  0.38763643  0.76336464  0.29616362    -0.19300
F2000       F  0.29772970  0.80799143  0.31807350    -0.22700
F2001       F  0.29517886  0.81504653  0.28004235    -0.24100
F2002       F  0.33201172  0.84529356  0.30063459    -0.18100
F2003       F  0.22678554  0.72576003  0.34045891    -0.20600
F2004       F  0.19963987  0.68863144  0.31875286    -0.21800
F2005       F  0.19429502  0.72509898  0.31829121    -0.19000
F2006       F  0.27511684  0.75848895  0.21977280    -0.19100
F2007       F  0.30626926  0.75384960  0.23934067    -0.22900
F2008       F  0.30546550  0.79275713  0.24240584    -0.24500
C2009       C  0.48998840  0.79643288  0.12204429    -0.11300
C2010       C  0.51679896  0.80903223  0.13066763     0.11300
C2011       C  0.53658159  0.80541389  0.11913717    -0.03100
C2012       C  0.52795020  0.78668458  0.10054771    -0.05800
C2013       C  0.50031806  0.77186965  0.09341330    -0.16600
C2014       C  0.48135300  0.77812678  0.10333793     0.02300
C2015       C  0.52154759  0.82221902  0.15367181     0.12300
C2016       C  0.56649413  0.82135397  0.12646636     0.62900
H2017       H  0.54244830  0.78250863  0.09223596     0.12300
C2018       C  0.45192854  0.76538780  0.09478880     0.55000
H2019       H  0.47531077  0.79986002  0.13102151     0.08100
C2020       C  0.51888283  0.84525514  0.15743009    -0.05700
C2021       C  0.51170035  0.84947651  0.17967474    -0.06500
C2022       C  0.50805556  0.83192251  0.19809934    -0.16100
C2023       C  0.51420501  0.81113086  0.19500900    -0.01600
C2024       C  0.52057038  0.80639169  0.17264049    -0.09200
C2025       C  0.52241911  0.86522616  0.13849245     0.65100
H2026       H  0.50787932  0.86596469  0.18245054     0.10500
C2027       C  0.51215879  0.79288002  0.21494872     0.63500
H2028       H  0.52231009  0.78865211  0.16942984     0.07900
F2029       F  0.44001911  0.77968613  0.10284254    -0.19600
F2030       F  0.43611777  0.73859602  0.10255226    -0.15800
F2031       F  0.45142493  0.76581009  0.07082852    -0.19300
F2032       F  0.56924421  0.81335204  0.14836393    -0.22700
F2033       F  0.57594307  0.84914591  0.12672986    -0.24100
F2034       F  0.58288448  0.81714440  0.11138099    -0.18100
F2035       F  0.48564290  0.77887694  0.22355677    -0.20600
F2036       F  0.53006012  0.80884116  0.23235784    -0.21800
F2037       F  0.51881841  0.77376073  0.20818204    -0.19000
F2038       F  0.54226480  0.89156728  0.14521627    -0.19100
F2039       F  0.49785960  0.86412639  0.13520039    -0.22900
F2040       F  0.53061311  0.85982453  0.11759478    -0.24500
C2041       C  0.43628339  0.72191097  0.30998171    -0.11300
C2042       C  0.42843608  0.70149805  0.29298638     0.11300
C2043       C  0.43186684  0.70883802  0.26923545    -0.03100
C2044       C  0.44238068  0.73641716  0.26327302    -0.05800
C2045       C  0.44990529  0.75691445  0.28011535    -0.16600
C2046       C  0.44716791  0.74973152  0.30394317     0.02300
C2047       C  0.41471592  0.67216297  0.29998880     0.12300
C2048       C  0.42343049  0.68743682  0.25015954     0.62900
H2049       H  0.44394862  0.74206863  0.24520179     0.12300
C2050       C  0.45450168  0.77103922  0.32282287     0.55000
H2051       H  0.43324565  0.71573507  0.32800413     0.08100
C2052       C  0.42957588  0.65899767  0.30405335    -0.05700
C2053       C  0.41531429  0.63003551  0.30339345    -0.06500
C2054       C  0.38685227  0.61441354  0.29931801    -0.16100
C2055       C  0.37162240  0.62765646  0.29985513    -0.01600
C2056       C  0.38593081  0.65646501  0.29946602    -0.09200
C2057       C  0.46038786  0.67554742  0.30797091     0.65100
H2058       H  0.42668509  0.61964813  0.30381000     0.10500
C2059       C  0.34043969  0.61215270  0.29961647     0.63500
H2060       H  0.37458983  0.66679500  0.29747697     0.07900
F2061       F  0.48238811  0.79023496  0.32214304    -0.19600
F2062       F  0.44816408  0.75932939  0.34468459    -0.15800
F2063       F  0.44010422  0.78414561  0.31957403    -0.19300
F2064       F  0.39520400  0.66989882  0.25032898    -0.22700
F2065       F  0.43576030  0.67233102  0.25348365    -0.24100
F2066       F  0.43110658  0.69937931  0.22842943    -0.18100
F2067       F  0.33122251  0.62380095  0.31549081    -0.20600
F2068       F  0.32892585  0.58481723  0.30560771    -0.21800
F2069       F  0.33143640  0.61373876  0.27778386    -0.19000
F2070       F  0.47071867  0.65877779  0.31231297    -0.19100
F2071       F  0.46620838  0.69263238  0.32689576    -0.22900
F2072       F  0.47366281  0.69135322  0.28869113    -0.24500
C2073       C  0.23448107  0.90957047  0.04830032    -0.11300
C2074       C  0.23847454  0.91706854  0.07177641     0.11300
C2075       C  0.25510953  0.91091601  0.08558153    -0.03100
C2076       C  0.26602299  0.89608329  0.07553208    -0.05800
C2077       C  0.26052652  0.88708811  0.05241594    -0.16600
C2078       C  0.24562885  0.89504230  0.03821890     0.02300
C2079       C  0.22197186  0.92799275  0.08180100     0.12300
C2080       C  0.26094527  0.91953718  0.11086350     0.62900
H2081       H  0.27761331  0.88997364  0.08607283     0.12300
C2082       C  0.24091190  0.88781178  0.01264055     0.55000
H2083       H  0.22137195  0.91404012  0.03810124     0.08100
C2084       C  0.22799134  0.95500772  0.07763623    -0.05700
C2085       C  0.20941807  0.96254088  0.08565367    -0.06500
C2086       C  0.18490049  0.94380348  0.09731699    -0.16100
C2087       C  0.17968125  0.91700639  0.10237083    -0.01600
C2088       C  0.19815112  0.90960065  0.09408746    -0.09200
C2089       C  0.25338238  0.97543346  0.06404793     0.65100
H2090       H  0.21339116  0.98287885  0.08189282     0.10500
C2091       C  0.15502193  0.89602829  0.11655017     0.63500
H2092       H  0.19377624  0.88889082  0.09664159     0.07900
F2093       F  0.26478342  0.89194754  0.00243378    -0.19600
F2094       F  0.23330694  0.90402957  0.00103413    -0.15800
F2095       F  0.22020231  0.86063381  0.00999257    -0.19300
F2096       F  0.23683513  0.90681126  0.12356832    -0.22700
F2097       F  0.27299199  0.94768570  0.11260327    -0.24100
F2098       F  0.27863081  0.91258823  0.12067568    -0.18100
F2099       F  0.13117857  0.88593592  0.10375282    -0.20600
F2100       F  0.15303859  0.90805280  0.13672767    -0.21800
F2101       F  0.15724380  0.87386390  0.12285675    -0.19000
F2102       F  0.25748453  0.00156769  0.06472927    -0.19100
F2103       F  0.25054055  0.96729116  0.04113283    -0.22900
F2104       F  0.27646546  0.97682330  0.07315864    -0.24500
C2105       C  0.17759325  0.67554522  0.01150068    -0.11300
C2106       C  0.19216068  0.66213046  0.01400782     0.11300
C2107       C  0.22115956  0.67774339  0.01596661    -0.03100
C2108       C  0.23432284  0.70643209  0.01780417    -0.05800
C2109       C  0.21945256  0.71980154  0.01805578    -0.16600
C2110       C  0.19070931  0.70430432  0.01368209     0.02300
C2111       C  0.17648953  0.63185847  0.01700641     0.12300
C2112       C  0.23798565  0.66410597  0.01735464     0.62900
H2113       H  0.25633897  0.71860380  0.02054464     0.12300
C2114       C  0.17362952  0.71762335  0.01257667     0.55000
H2115       H  0.15551924  0.66304604  0.00926993     0.08100
C2116       C  0.16549147  0.61978644  0.03888571    -0.05700
C2117       C  0.15491941  0.59158684  0.04170176    -0.06500
C2118       C  0.15563592  0.57549848  0.02367249    -0.16100
C2119       C  0.16452904  0.58702873  0.00130309    -0.01600
C2120       C  0.17453377  0.61517186  0.99829822    -0.09200
C2121       C  0.16642437  0.63682547  0.05957114     0.65100
H2122       H  0.14803320  0.58225472  0.05864451     0.10500
C2123       C  0.16491710  0.57106702  0.98039814     0.63500
H2124       H  0.18232119  0.62453396  0.98148212     0.07900
F2125       F  0.17583285  0.73106551  0.03316410    -0.19600
F2126       F  0.14604779  0.69850613  0.00893578    -0.15800
F2127       F  0.18278838  0.73621578  0.99447654    -0.19300
F2128       F  0.23376180  0.64846833  0.99772096    -0.22700
F2129       F  0.23028146  0.64735357  0.03666697    -0.24100
F2130       F  0.26589501  0.68321282  0.01890668    -0.18100
F2131       F  0.15004632  0.57344253  0.96263837    -0.20600
F2132       F  0.15357958  0.54343402  0.98489771    -0.21800
F2133       F  0.19176154  0.58195377  0.97304673    -0.19000
F2134       F  0.15490924  0.62086676  0.07919953    -0.19100
F2135       F  0.15191557  0.64945635  0.05470469    -0.22900
F2136       F  0.19338142  0.65664448  0.06458080    -0.24500
C2137       C  0.13847638  0.72242670  0.16856604    -0.11300
C2138       C  0.16398479  0.73296240  0.15749233     0.11300
C2139       C  0.18411959  0.72847935  0.16711879    -0.03100
C2140       C  0.17761164  0.71273548  0.18727161    -0.05800
C2141       C  0.15201409  0.70168338  0.19832834    -0.16600
C2142       C  0.13206536  0.70679541  0.18908492     0.02300
C2143       C  0.16908486  0.74713980  0.13496296     0.12300
C2144       C  0.21262835  0.74062086  0.15644099     0.62900
H2145       H  0.19290372  0.70930545  0.19488934     0.12300
C2146       C  0.10406051  0.69532429  0.20032163     0.55000
H2147       H  0.12357318  0.72633604  0.16082739     0.08100
C2148       C  0.16256506  0.73209864  0.11399079    -0.05700
C2149       C  0.17664957  0.74599697  0.09378403    -0.06500
C2150       C  0.19708819  0.77391188  0.09438228    -0.16100
C2151       C  0.20066960  0.78962751  0.11446429    -0.01600
C2152       C  0.18605680  0.77588581  0.13461645    -0.09200
C2153       C  0.14296329  0.70115705  0.11347025     0.65100
H2154       H  0.17420797  0.73450726  0.07808948     0.10500
C2155       C  0.22128784  0.82033456  0.11486216     0.63500
H2156       H  0.19021754  0.78701929  0.15080881     0.07900
F2157       F  0.08687863  0.70015062  0.18697495    -0.19600
F2158       F  0.10698935  0.70762005  0.22166515    -0.15800
F2159       F  0.09156240  0.66722631  0.20320073    -0.19300
F2160       F  0.22672765  0.76890494  0.15835295    -0.22700
F2161       F  0.21073175  0.73342906  0.13332553    -0.24100
F2162       F  0.22792092  0.73147798  0.16745865    -0.18100
F2163       F  0.21982458  0.83222226  0.13533665    -0.20600
F2164       F  0.21604533  0.83271104  0.09669847    -0.21800
F2165       F  0.24767365  0.82540606  0.11255248    -0.19000
F2166       F  0.13898737  0.69077711  0.09115306    -0.19100
F2167       F  0.11769236  0.69466892  0.12226700    -0.22900
F2168       F  0.15331057  0.68842403  0.12669772    -0.24500
C2169       C  0.34267623  0.84466137  0.15501852    -0.11300
C2170       C  0.36737300  0.87006422  0.15357105     0.11300
C2171       C  0.37366946  0.88565377  0.13299349    -0.03100
C2172       C  0.35535491  0.87471429  0.11422233    -0.05800
C2173       C  0.33106905  0.84853193  0.11501550    -0.16600
C2174       C  0.32445660  0.83323475  0.13616045     0.02300
C2175       C  0.38818154  0.87600073  0.17175012     0.12300
C2176       C  0.40026367  0.91295508  0.12940538     0.62900
H2177       H  0.36092540  0.88653234  0.09831632     0.12300
C2178       C  0.29945735  0.80434556  0.13895275     0.55000
H2179       H  0.33883664  0.83280500  0.17073015     0.08100
C2180       C  0.38607535  0.88364592  0.19467645    -0.05700
C2181       C  0.40284775  0.88246737  0.21202928    -0.06500
C2182       C  0.42197987  0.87472806  0.20671857    -0.16100
C2183       C  0.42688530  0.87151613  0.18314044    -0.01600
C2184       C  0.40910478  0.87101763  0.16618140    -0.09200
C2185       C  0.36602971  0.89264666  0.20064787     0.65100
H2186       H  0.39970185  0.88563745  0.23000559     0.10500
C2187       C  0.45031061  0.86816615  0.17514825     0.63500
H2188       H  0.41124102  0.86615824  0.14841043     0.07900
F2189       F  0.29659087  0.79466846  0.16141435    -0.19600
F2190       F  0.30202638  0.78634326  0.12460176    -0.15800
F2191       F  0.27576621  0.80415211  0.13362018    -0.19300
F2192       F  0.41728746  0.90903956  0.11490386    -0.22700
F2193       F  0.41398719  0.92452587  0.14991355    -0.24100
F2194       F  0.39473301  0.93143601  0.11913596    -0.18100
F2195       F  0.44011047  0.84113191  0.16884779    -0.20600
F2196       F  0.47005795  0.87569013  0.19211360    -0.21800
F2197       F  0.46306945  0.88483817  0.15612419    -0.19000
F2198       F  0.36944539  0.90225691  0.22319192    -0.19100
F2199       F  0.33930363  0.87087237  0.19821288    -0.22900
F2200       F  0.37027035  0.91363396  0.18593994    -0.24500
C2201       C  0.36458938  0.77932428  0.00313207    -0.11300
C2202       C  0.37986275  0.77645374  0.02065198     0.11300
C2203       C  0.37980984  0.78588551  0.04337160    -0.03100
C2204       C  0.36331321  0.79690206  0.04799206    -0.05800
C2205       C  0.34701389  0.79862471  0.03076055    -0.16600
C2206       C  0.34755838  0.78978201  0.00785473     0.02300
C2207       C  0.39470448  0.76218805  0.01535927     0.12300
C2208       C  0.39675654  0.78390218  0.06272375     0.62900
H2209       H  0.36236666  0.80360426  0.06537940     0.12300
C2210       C  0.32983784  0.78941252  0.98806478     0.55000
H2211       H  0.36502063  0.77214212  0.98580499     0.08100
C2212       C  0.38178362  0.73340959  0.01758297    -0.05700
C2213       C  0.39837411  0.72195330  0.01836714    -0.06500
C2214       C  0.42728254  0.73840762  0.01705748    -0.16100
C2215       C  0.43960227  0.76671675  0.01114502    -0.01600
C2216       C  0.42285964  0.77809097  0.01058111    -0.09200
C2217       C  0.35076799  0.71515976  0.02021640     0.65100
H2218       H  0.38887754  0.70014989  0.02157219     0.10500
C2219       C  0.47018992  0.78539904  0.00645356     0.63500
H2220       H  0.43189337  0.79995461  0.00800931     0.07900
F2221       F  0.31369703  0.76280003  0.97991154    -0.19600
F2222       F  0.34666754  0.80586916  0.97027936    -0.15800
F2223       F  0.31256642  0.79857368  0.99424410    -0.19300
F2224       F  0.42437845  0.79957681  0.05718312    -0.22700
F2225       F  0.38950096  0.75690500  0.06578176    -0.24100
F2226       F  0.39284392  0.79334330  0.08364439    -0.18100
F2227       F  0.47673032  0.81121222  0.99909199    -0.20600
F2228       F  0.47813602  0.77415384  0.98913439    -0.21800
F2229       F  0.48500277  0.78876166  0.02641290    -0.19000
F2230       F  0.34233160  0.68762308  0.02147715    -0.19100
F2231       F  0.33800035  0.71859481  0.00133281    -0.22900
F2232       F  0.34218132  0.72199373  0.04017742    -0.24500
C2233       C  0.48663376  0.82037864  0.42418710    -0.11300
C2234       C  0.49220720  0.84625149  0.41690573     0.11300
C2235       C  0.49891786  0.86702766  0.43357248    -0.03100
C2236       C  0.50134186  0.86163279  0.45697347    -0.05800
C2237       C  0.49606337  0.83582518  0.46444947    -0.16600
C2238       C  0.48792271  0.81453206  0.44777331     0.02300
C2239       C  0.48969507  0.85061328  0.39177256     0.12300
C2240       C  0.50244891  0.89441057  0.42676332     0.62900
H2241       H  0.50692342  0.87756711  0.46980922     0.12300
C2242       C  0.47909118  0.78540323  0.45478912     0.55000
H2243       H  0.48080005  0.80460025  0.41114234     0.08100
C2244       C  0.51183842  0.85912756  0.37612447    -0.05700
C2245       C  0.50799357  0.86299839  0.35266626    -0.06500
C2246       C  0.48258436  0.85784385  0.34412128    -0.16100
C2247       C  0.46020269  0.84877202  0.35987992    -0.01600
C2248       C  0.46433045  0.84548520  0.38349118    -0.09200
C2249       C  0.53916176  0.86327482  0.38403810     0.65100
H2250       H  0.52488559  0.86961461  0.34060480     0.10500
C2251       C  0.43182853  0.84164276  0.35195558     0.63500
H2252       H  0.44763620  0.83861947  0.39581151     0.07900
F2253       F  0.50123511  0.78476389  0.46364189    -0.19600
F2254       F  0.46891032  0.76744969  0.43616978    -0.15800
F2255       F  0.45853263  0.77604788  0.47136025    -0.19300
F2256       F  0.47802593  0.89008234  0.41784236    -0.22700
F2257       F  0.52280595  0.90726702  0.41017717    -0.24100
F2258       F  0.50956202  0.91199713  0.44553005    -0.18100
F2259       F  0.41275855  0.83096297  0.36980075    -0.20600
F2260       F  0.42259103  0.82216425  0.33450011    -0.21800
F2261       F  0.43293445  0.86500504  0.34392323    -0.19000
F2262       F  0.55808493  0.87194345  0.36610237    -0.19100
F2263       F  0.53518262  0.83878186  0.39241665    -0.22900
F2264       F  0.55030911  0.88281280  0.40139124    -0.24500
C2265       C  0.67426001  0.94920397  0.58708511    -0.11300
C2266       C  0.66147102  0.92493553  0.57394598     0.11300
C2267       C  0.67585556  0.91147854  0.56884579    -0.03100
C2268       C  0.70241717  0.92231547  0.57788249    -0.05800
C2269       C  0.71517048  0.94632613  0.59139211    -0.16600
C2270       C  0.70104513  0.96025457  0.59597827     0.02300
C2271       C  0.63213092  0.91242416  0.56737308     0.12300
C2272       C  0.66315262  0.88578247  0.55383940     0.62900
H2273       H  0.71366484  0.91220274  0.57423420     0.12300
C2274       C  0.71364890  0.98594104  0.61093352     0.55000
H2275       H  0.66279166  0.95908232  0.59070715     0.08100
C2276       C  0.61090405  0.89340568  0.58222564    -0.05700
C2277       C  0.58403393  0.87791882  0.57347379    -0.06500
C2278       C  0.57769799  0.88184306  0.55089519    -0.16100
C2279       C  0.59833598  0.90272835  0.53683920    -0.01600
C2280       C  0.62556000  0.91761329  0.54525922    -0.09200
C2281       C  0.61674700  0.88945983  0.60714572     0.65100
H2282       H  0.56768672  0.86225109  0.58412971     0.10500
C2283       C  0.59155426  0.90849427  0.51295031     0.63500
H2284       H  0.64206537  0.93270237  0.53438166     0.07900
F2285       F  0.72231512  0.98109987  0.63177762    -0.19600
F2286       F  0.69501620  0.99390654  0.61578971    -0.15800
F2287       F  0.73582659  0.00742872  0.59957439    -0.19300
F2288       F  0.65834032  0.89197123  0.53188119    -0.22700
F2289       F  0.63855536  0.86544937  0.56331069    -0.24100
F2290       F  0.68021539  0.87537639  0.55175605    -0.18100
F2291       F  0.61450720  0.92958604  0.50197198    -0.20600
F2292       F  0.57216535  0.91601112  0.51485807    -0.21800
F2293       F  0.58106782  0.88517105  0.49933123    -0.19000
F2294       F  0.59328657  0.86948572  0.61840775    -0.19100
F2295       F  0.62681413  0.91387067  0.61914279    -0.22900
F2296       F  0.63597490  0.88167689  0.60785552    -0.24500
C2297       C  0.50724416  0.67314748  0.87902825    -0.11300
C2298       C  0.48422083  0.66068887  0.89358125     0.11300
C2299       C  0.45812162  0.64127147  0.88444971    -0.03100
C2300       C  0.45602812  0.63486496  0.86073015    -0.05800
C2301       C  0.47901792  0.64749392  0.84590697    -0.16600
C2302       C  0.50533106  0.66671026  0.85531279     0.02300
C2303       C  0.48794321  0.66916562  0.91824174     0.12300
C2304       C  0.43250929  0.62782558  0.89959799     0.62900
H2305       H  0.43606119  0.62050768  0.85341941     0.12300
C2306       C  0.53150491  0.68029430  0.84081416     0.55000
H2307       H  0.52682685  0.68835092  0.88647014     0.08100
C2308       C  0.49869727  0.65897715  0.93471112    -0.05700
C2309       C  0.50017771  0.66690554  0.95800507    -0.06500
C2310       C  0.49153182  0.68480961  0.96523343    -0.16100
C2311       C  0.48164910  0.69577508  0.94833566    -0.01600
C2312       C  0.48038813  0.68785626  0.92505840    -0.09200
C2313       C  0.50841211  0.63972790  0.92769939     0.65100
H2314       H  0.50813082  0.65904439  0.97083597     0.10500
C2315       C  0.47166987  0.71507437  0.95451468     0.63500
H2316       H  0.47301654  0.69586966  0.91183454     0.07900
F2317       F  0.55482255  0.69399756  0.85446496    -0.19600
F2318       F  0.53159682  0.69929452  0.82592986    -0.15800
F2319       F  0.53330187  0.66065209  0.82819257    -0.19300
F2320       F  0.42677805  0.64736143  0.90701591    -0.22700
F2321       F  0.43653337  0.61574308  0.91868330    -0.24100
F2322       F  0.40975393  0.60766846  0.88775663    -0.18100
F2323       F  0.49345082  0.73976293  0.96248517    -0.20600
F2324       F  0.45141558  0.70326289  0.97135234    -0.21800
F2325       F  0.46060259  0.72078195  0.93558980    -0.19000
F2326       F  0.51671060  0.63101724  0.94663476    -0.19100
F2327       F  0.53051659  0.65305063  0.91270554    -0.22900
F2328       F  0.48737725  0.61675451  0.91680114    -0.24500
C2329       C  0.51351858  0.72863660  0.61492793    -0.11300
C2330       C  0.51930344  0.74128408  0.63672855     0.11300
C2331       C  0.52757609  0.76931470  0.63841474    -0.03100
C2332       C  0.52564402  0.78256173  0.61859828    -0.05800
C2333       C  0.51578650  0.76854049  0.59745832    -0.16600
C2334       C  0.51086230  0.74154574  0.59520798     0.02300
C2335       C  0.51005351  0.72316095  0.65746574     0.12300
C2336       C  0.53692037  0.78455252  0.66132668     0.62900
H2337       H  0.52983294  0.80334947  0.61989248     0.12300
C2338       C  0.49975972  0.72523432  0.57294687     0.55000
H2339       H  0.50780273  0.70732805  0.61409849     0.08100
C2340       C  0.48209349  0.70923331  0.66434510    -0.05700
C2341       C  0.47412002  0.69297883  0.68434023    -0.06500
C2342       C  0.49277613  0.68958359  0.69757963    -0.16100
C2343       C  0.52069133  0.70274579  0.69021697    -0.01600
C2344       C  0.52887013  0.71952832  0.67018851    -0.09200
C2345       C  0.46052657  0.71135633  0.65057272     0.65100
H2346       H  0.45292678  0.68296880  0.69001068     0.10500
C2347       C  0.54151771  0.69849063  0.70279863     0.63500
H2348       H  0.55002547  0.73004535  0.66432347     0.07900
F2349       F  0.47464435  0.72218171  0.56791411    -0.19600
F2350       F  0.49594256  0.69926000  0.57467346    -0.15800
F2351       F  0.51793838  0.73879037  0.55495155    -0.19300
F2352       F  0.55941586  0.78393170  0.66932981    -0.22700
F2353       F  0.51599093  0.77231553  0.67753284    -0.24100
F2354       F  0.54449729  0.81178673  0.65911269    -0.18100
F2355       F  0.56610921  0.70979477  0.69073891    -0.20600
F2356       F  0.53123206  0.67067274  0.70530721    -0.21800
F2357       F  0.54707549  0.71077634  0.72439435    -0.19000
F2358       F  0.43499882  0.69755347  0.66122934    -0.19100
F2359       F  0.45769254  0.69994139  0.62883957    -0.22900
F2360       F  0.46816150  0.73854413  0.64825417    -0.24500
C2361       C  0.15835799  0.67760937  0.42809772    -0.11300
C2362       C  0.13308970  0.66965679  0.41764082     0.11300
C2363       C  0.11122909  0.66732641  0.43121030    -0.03100
C2364       C  0.11565315  0.67350893  0.45500520    -0.05800
C2365       C  0.14100769  0.68171326  0.46541031    -0.16600
C2366       C  0.16276163  0.68376101  0.45189223     0.02300
C2367       C  0.13015642  0.66360920  0.39241750     0.12300
C2368       C  0.08321239  0.65769244  0.42072447     0.62900
H2369       H  0.09910992  0.67135902  0.46586225     0.12300
C2370       C  0.19011284  0.69148129  0.46275394     0.55000
H2371       H  0.17458961  0.67880457  0.41739272     0.08100
C2372       C  0.14014335  0.68475870  0.37575388    -0.05700
C2373       C  0.13704713  0.67762766  0.35218181    -0.06500
C2374       C  0.12448492  0.65011470  0.34454666    -0.16100
C2375       C  0.11453767  0.62885466  0.36154810    -0.01600
C2376       C  0.11784393  0.63620934  0.38521282    -0.09200
C2377       C  0.15416675  0.71480461  0.38286959     0.65100
H2378       H  0.14482030  0.69391752  0.33947451     0.10500
C2379       C  0.10025567  0.59856238  0.35522073     0.63500
H2380       H  0.11083052  0.62055219  0.39849167     0.07900
F2381       F  0.20262823  0.71785512  0.47159309    -0.19600
F2382       F  0.20785074  0.69064719  0.44679677    -0.15800
F2383       F  0.18593482  0.67339549  0.48048144    -0.19300
F2384       F  0.07161624  0.63099130  0.41288069    -0.22700
F2385       F  0.08578458  0.67436774  0.40234567    -0.24100
F2386       F  0.06538750  0.65830984  0.43672091    -0.18100
F2387       F  0.09089626  0.58181680  0.37460688    -0.20600
F2388       F  0.11839190  0.59339207  0.34367701    -0.21800
F2389       F  0.07772259  0.59135369  0.34134865    -0.19000
F2390       F  0.16130104  0.73205205  0.36389717    -0.19100
F2391       F  0.17791550  0.72230809  0.39503239    -0.22900
F2392       F  0.13679439  0.71886702  0.39674812    -0.24500
C2393       C  0.34962965  0.78158177  0.54919821    -0.11300
C2394       C  0.34298507  0.78552372  0.52682784     0.11300
C2395       C  0.36419425  0.80104327  0.51059211    -0.03100
C2396       C  0.39158792  0.81005747  0.51680434    -0.05800
C2397       C  0.39794098  0.80404690  0.53869535    -0.16600
C2398       C  0.37678015  0.79089264  0.55562138     0.02300
C2399       C  0.31326726  0.77137362  0.52120962     0.12300
C2400       C  0.35763215  0.80708669  0.48672835     0.62900
H2401       H  0.40801294  0.82068702  0.50425941     0.12300
C2402       C  0.38223626  0.78572389  0.58030771     0.55000
H2403       H  0.33304563  0.77006433  0.56146661     0.08100
C2404       C  0.29732511  0.74245632  0.51833389    -0.05700
C2405       C  0.26864706  0.72895845  0.52073575    -0.06500
C2406       C  0.25531917  0.74328105  0.52568337    -0.16100
C2407       C  0.27114966  0.77246352  0.52686452    -0.01600
C2408       C  0.29997785  0.78598393  0.52456763    -0.09200
C2409       C  0.30953995  0.72463970  0.51431801     0.65100
H2410       H  0.25657875  0.70671133  0.51973198     0.10500
C2411       C  0.25812677  0.78919342  0.53247328     0.63500
H2412       H  0.31260651  0.80797326  0.52716794     0.07900
F2413       F  0.38444338  0.76273751  0.58085191    -0.19600
F2414       F  0.36111350  0.78128346  0.59509397    -0.15800
F2415       F  0.40619158  0.80811468  0.58868401    -0.19300
F2416       F  0.34443559  0.82156220  0.48882214    -0.22700
F2417       F  0.34066362  0.78272960  0.47511702    -0.24100
F2418       F  0.38115734  0.82264250  0.47356986    -0.18100
F2419       F  0.24453762  0.78081325  0.55350521    -0.20600
F2420       F  0.23973598  0.78563072  0.51525479    -0.21800
F2421       F  0.27747902  0.81701421  0.53403649    -0.19000
F2422       F  0.29651344  0.70730125  0.49572491    -0.19100
F2423       F  0.30534425  0.70889936  0.53385095    -0.22900
F2424       F  0.33737859  0.73963156  0.50947272    -0.24500
C2425       C  0.05575918  0.71687450  0.54103180    -0.11300
C2426       C  0.05096218  0.71876790  0.56466150     0.11300
C2427       C  0.05961732  0.70655164  0.58125507    -0.03100
C2428       C  0.07588790  0.69595848  0.57384221    -0.05800
C2429       C  0.08333286  0.69704369  0.55049719    -0.16600
C2430       C  0.07208153  0.70635198  0.53364834     0.02300
C2431       C  0.04084814  0.73721978  0.57171120     0.12300
C2432       C  0.05240209  0.70555728  0.60671752     0.62900
H2433       H  0.08422594  0.68817434  0.58639725     0.12300
C2434       C  0.07776376  0.70547667  0.50804872     0.55000
H2435       H  0.04820480  0.72548691  0.52851974     0.08100
C2436       C  0.05904845  0.76603501  0.57259824    -0.05700
C2437       C  0.04918116  0.78259464  0.58059875    -0.06500
C2438       C  0.02165212  0.77171421  0.58758574    -0.16100
C2439       C  0.00308339  0.74273138  0.58578288    -0.01600
C2440       C  0.01318105  0.72603540  0.57794671    -0.09200
C2441       C  0.08895486  0.77938326  0.56505440     0.65100
H2442       H  0.06322864  0.80461210  0.58117378     0.10500
C2443       C  0.97289053  0.72920771  0.59209920     0.63500
H2444       H  0.99954322  0.70398373  0.57662600     0.07900
F2445       F  0.10550165  0.72268930  0.50351311    -0.19600
F2446       F  0.06343234  0.71368522  0.49437797    -0.15800
F2447       F  0.06985995  0.67891234  0.50185503    -0.19300
F2448       F  0.02413597  0.69082692  0.60933823    -0.22700
F2449       F  0.06289848  0.73188206  0.61515921    -0.24100
F2450       F  0.06290131  0.69292277  0.61994145    -0.18100
F2451       F  0.95922729  0.70084886  0.59046848    -0.20600
F2452       F  0.96025273  0.73807482  0.57713553    -0.21800
F2453       F  0.97021489  0.73580573  0.61464120    -0.19000
F2454       F  0.10357654  0.80749255  0.56873957    -0.19100
F2455       F  0.09026420  0.77494974  0.54164914    -0.22900
F2456       F  0.10171078  0.76837453  0.57736854    -0.24500
C2457       C  0.32838386  0.87540718  0.88110262    -0.11300
C2458       C  0.31599622  0.85053164  0.89344425     0.11300
C2459       C  0.30979717  0.82598517  0.88188709    -0.03100
C2460       C  0.31648618  0.82726159  0.85828034    -0.05800
C2461       C  0.32914253  0.85209366  0.84605535    -0.16600
C2462       C  0.33526596  0.87662974  0.85744419     0.02300
C2463       C  0.30919434  0.85035988  0.91839849     0.12300
C2464       C  0.29603562  0.79850035  0.89438308     0.62900
H2465       H  0.31158004  0.80871080  0.84899829     0.12300
C2466       C  0.34845589  0.90368840  0.84443486     0.55000
H2467       H  0.33249216  0.89382338  0.89015465     0.08100
C2468       C  0.32908481  0.85811231  0.93601697    -0.05700
C2469       C  0.32041174  0.85404405  0.95931602    -0.06500
C2470       C  0.29249547  0.84193696  0.96556364    -0.16100
C2471       C  0.27268395  0.83487701  0.94766809    -0.01600
C2472       C  0.28170251  0.84005946  0.92444438    -0.09200
C2473       C  0.35923763  0.87004348  0.93016348     0.65100
H2474       H  0.33547589  0.85947727  0.97287237     0.10500
C2475       C  0.24208354  0.82135132  0.95258522     0.63500
H2476       H  0.26704886  0.83471257  0.91053362     0.07900
F2477       F  0.37404272  0.91030384  0.83631428    -0.19600
F2478       F  0.35184485  0.92497822  0.85843565    -0.15800
F2479       F  0.33213452  0.90145111  0.82585063    -0.19300
F2480       F  0.26985166  0.79118425  0.90130529    -0.22700
F2481       F  0.31123374  0.80025654  0.91364443    -0.24100
F2482       F  0.29374350  0.77772424  0.88030419    -0.18100
F2483       F  0.22735162  0.81914003  0.93281816    -0.20600
F2484       F  0.23761665  0.83670038  0.96859731    -0.21800
F2485       F  0.23186582  0.79506521  0.96099721    -0.19000
F2486       F  0.37507526  0.87532889  0.94984265    -0.19100
F2487       F  0.36932983  0.89449636  0.91830035    -0.22900
F2488       F  0.36217759  0.85180261  0.91648430    -0.24500
C2489       C  0.45401616  0.87619766  0.63685241    -0.11300
C2490       C  0.46497520  0.87140854  0.65672017     0.11300
C2491       C  0.48523413  0.86431765  0.65414605    -0.03100
C2492       C  0.49077325  0.85836086  0.63186453    -0.05800
C2493       C  0.47811945  0.86108249  0.61209633    -0.16600
C2494       C  0.46101816  0.87222653  0.61444700     0.02300
C2495       C  0.44935867  0.86642702  0.67867554     0.12300
C2496       C  0.50051925  0.86157385  0.67437246     0.62900
H2497       H  0.50430530  0.85041020  0.62998157     0.12300
C2498       C  0.44811436  0.87883584  0.59447280     0.55000
H2499       H  0.43830633  0.88135753  0.63883180     0.08100
C2500       C  0.44867912  0.88735456  0.69132737    -0.05700
C2501       C  0.42954089  0.87972457  0.70963013    -0.06500
C2502       C  0.41135991  0.85199610  0.71541816    -0.16100
C2503       C  0.41414338  0.83138468  0.70414129    -0.01600
C2504       C  0.43282309  0.83902821  0.68570702    -0.09200
C2505       C  0.46839923  0.91744734  0.68575254     0.65100
H2506       H  0.42811478  0.89533460  0.71910334     0.10500
C2507       C  0.39799233  0.80143262  0.71165952     0.63500
H2508       H  0.43402733  0.82339327  0.67600867     0.07900
F2509       F  0.45404557  0.90552321  0.59694460    -0.19600
F2510       F  0.41989560  0.86129965  0.59509108    -0.15800
F2511       F  0.45750221  0.87681248  0.57296653    -0.19300
F2512       F  0.49252671  0.83431081  0.67701423    -0.22700
F2513       F  0.49587657  0.87098345  0.69495914    -0.24100
F2514       F  0.52847932  0.87683668  0.66990662    -0.18100
F2515       F  0.37082634  0.78932288  0.70498293    -0.20600
F2516       F  0.39942132  0.79972014  0.73547104    -0.21800
F2517       F  0.40839087  0.78654673  0.70180149    -0.19000
F2518       F  0.46638339  0.93448642  0.70169741    -0.19100
F2519       F  0.46285095  0.92354933  0.66405996    -0.22900
F2520       F  0.49510841  0.92306956  0.68610249    -0.24500
C2521       C  0.42853114  0.78754371  0.80031709    -0.11300
C2522       C  0.41215354  0.75884053  0.79934441     0.11300
C2523       C  0.38323392  0.74573292  0.80097600    -0.03100
C2524       C  0.37144869  0.76201398  0.80006169    -0.05800
C2525       C  0.38774496  0.79068633  0.79765147    -0.16600
C2526       C  0.41678826  0.80392435  0.79923676     0.02300
C2527       C  0.42528494  0.74325758  0.79262772     0.12300
C2528       C  0.36497517  0.71466526  0.80250168     0.62900
H2529       H  0.34929617  0.75231791  0.79943408     0.12300
C2530       C  0.43541563  0.83493305  0.79774450     0.55000
H2531       H  0.45065033  0.79695418  0.79974393     0.08100
C2532       C  0.42993790  0.74018412  0.76896588    -0.05700
C2533       C  0.43892780  0.72225576  0.76319791    -0.06500
C2534       C  0.44438751  0.70834406  0.78026711    -0.16100
C2535       C  0.44167421  0.71294446  0.80403665    -0.01600
C2536       C  0.43181019  0.73028821  0.80982751    -0.09200
C2537       C  0.42518767  0.75558279  0.74986866     0.65100
H2538       H  0.44158003  0.71871448  0.74518141     0.10500
C2539       C  0.44845069  0.69911264  0.82309884     0.63500
H2540       H  0.42861503  0.73350037  0.82778252     0.07900
F2541       F  0.43206861  0.84405106  0.77654214    -0.19600
F2542       F  0.46287753  0.84330089  0.79997777    -0.15800
F2543       F  0.42900493  0.84714725  0.81535551    -0.19300
F2544       F  0.37171434  0.70550477  0.82206991    -0.22700
F2545       F  0.36857287  0.70255049  0.78312907    -0.24100
F2546       F  0.33740809  0.70618072  0.80397814    -0.18100
F2547       F  0.47621152  0.70841620  0.82249282    -0.20600
F2548       F  0.43355014  0.67092949  0.82007373    -0.21800
F2549       F  0.44232999  0.70478633  0.84486627    -0.19000
F2550       F  0.43034150  0.74899880  0.72808743    -0.19100
F2551       F  0.44256952  0.78356506  0.75297668    -0.22900
F2552       F  0.39824344  0.74921200  0.75033305    -0.24500
C2553       C  0.26919781  0.79683524  0.66071987    -0.11300
C2554       C  0.24533008  0.79804487  0.66234266     0.11300
C2555       C  0.23963013  0.80748383  0.68302965    -0.03100
C2556       C  0.25780091  0.81455516  0.70182476    -0.05800
C2557       C  0.28068747  0.81137136  0.70087824    -0.16600
C2558       C  0.28705914  0.80320671  0.67959550     0.02300
C2559       C  0.22467204  0.78393443  0.64375815     0.12300
C2560       C  0.21381586  0.80876266  0.68567577     0.62900
H2561       H  0.25311823  0.82089775  0.71800805     0.12300
C2562       C  0.31199105  0.80038273  0.67658938     0.55000
H2563       H  0.27274181  0.78899818  0.64481306     0.08100
C2564       C  0.22769596  0.79531773  0.62136164    -0.05700
C2565       C  0.21213541  0.77771348  0.60301106    -0.06500
C2566       C  0.19493982  0.74925122  0.60636237    -0.16100
C2567       C  0.18980843  0.73853693  0.62922360    -0.01600
C2568       C  0.20498606  0.75614550  0.64752163    -0.09200
C2569       C  0.24835006  0.82546770  0.61659497     0.65100
H2570       H  0.21523120  0.78568607  0.58554948     0.10500
C2571       C  0.16994102  0.70832922  0.63443290     0.63500
H2572       H  0.20317197  0.74772300  0.66471348     0.07900
F2573       F  0.31652411  0.79706201  0.65354168    -0.19600
F2574       F  0.30802264  0.77760186  0.68853812    -0.15800
F2575       F  0.33532430  0.82372508  0.68469378    -0.19300
F2576       F  0.19084779  0.78254721  0.68497915    -0.22700
F2577       F  0.21223971  0.82410173  0.66796525    -0.24100
F2578       F  0.21348042  0.82076055  0.70646834    -0.18100
F2579       F  0.16118434  0.70455108  0.65728596    -0.20600
F2580       F  0.18276670  0.69372268  0.63067379    -0.21800
F2581       F  0.14690884  0.69791258  0.62049954    -0.19000
F2582       F  0.24683479  0.83250446  0.59393545    -0.19100
F2583       F  0.27474473  0.83119751  0.62041167    -0.22900
F2584       F  0.24333893  0.84171801  0.63102442    -0.24500
C2585       C  0.11064849  0.45690992  0.87854597    -0.11300
C2586       C  0.11658299  0.47953486  0.89238158     0.11300
C2587       C  0.11979088  0.50351227  0.88211747    -0.03100
C2588       C  0.11741849  0.50411955  0.85795587    -0.05800
C2589       C  0.11233280  0.48179620  0.84384504    -0.16600
C2590       C  0.10800160  0.45733053  0.85437526     0.02300
C2591       C  0.12068836  0.47777930  0.91747053     0.12300
C2592       C  0.12654904  0.52865759  0.89645725     0.62900
H2593       H  0.12066612  0.52266102  0.84980031     0.12300
C2594       C  0.10038213  0.43160643  0.84054733     0.55000
H2595       H  0.10857432  0.43894584  0.88692499     0.08100
C2596       C  0.09834716  0.46368934  0.93299699    -0.05700
C2597       C  0.10397699  0.46236843  0.95649161    -0.06500
C2598       C  0.13103361  0.47419536  0.96468165    -0.16100
C2599       C  0.15339964  0.48810132  0.94897682    -0.01600
C2600       C  0.14769586  0.48941154  0.92548849    -0.09200
C2601       C  0.06876773  0.45012883  0.92475678     0.65100
H2602       H  0.08719567  0.45204760  0.96877062     0.10500
C2603       C  0.18311900  0.50227562  0.95693656     0.63500
H2604       H  0.16433055  0.49961769  0.91306078     0.07900
F2605       F  0.09176744  0.40903983  0.85480593    -0.19600
F2606       F  0.12294999  0.43555958  0.82813261    -0.15800
F2607       F  0.07906910  0.42549948  0.82550786    -0.19300
F2608       F  0.15242092  0.53983732  0.90602083    -0.22700
F2609       F  0.10750367  0.52149794  0.91405935    -0.24100
F2610       F  0.12631982  0.54873063  0.88318529    -0.18100
F2611       F  0.20136234  0.51684283  0.93916707    -0.20600
F2612       F  0.18882177  0.48290906  0.96476470    -0.21800
F2613       F  0.18762498  0.52059744  0.97459097    -0.19000
F2614       F  0.05025639  0.43884391  0.94294582    -0.19100
F2615       F  0.06311271  0.42929033  0.90929924    -0.22900
F2616       F  0.06460322  0.46921387  0.91389480    -0.24500
C2617       C  0.08435636  0.54321920  0.67143163    -0.11300
C2618       C  0.09639129  0.57168299  0.66943429     0.11300
C2619       C  0.10822543  0.58877388  0.68906679    -0.03100
C2620       C  0.11123795  0.57713032  0.70934833    -0.05800
C2621       C  0.10266197  0.54926486  0.71023821    -0.16600
C2622       C  0.08747924  0.53154357  0.69164580     0.02300
C2623       C  0.10170713  0.58370315  0.64602821     0.12300
C2624       C  0.11883560  0.61932957  0.68812600     0.62900
H2625       H  0.12213257  0.59006623  0.72407042     0.12300
C2626       C  0.07468663  0.50058127  0.69190605     0.55000
H2627       H  0.07449260  0.53032337  0.65642257     0.08100
C2628       C  0.12523574  0.58853800  0.63354434    -0.05700
C2629       C  0.13270077  0.60482856  0.61368887    -0.06500
C2630       C  0.11727391  0.61587364  0.60576243    -0.16100
C2631       C  0.09227548  0.60885605  0.61693766    -0.01600
C2632       C  0.08499690  0.59291605  0.63728366    -0.09200
C2633       C  0.14278618  0.57708506  0.64136969     0.65100
H2634       H  0.15109353  0.60947427  0.60423923     0.10500
C2635       C  0.07402848  0.61885394  0.60800458     0.63500
H2636       H  0.06678205  0.58830199  0.64697878     0.07900
F2637       F  0.08457136  0.49281425  0.67336511    -0.19600
F2638       F  0.04649842  0.48802124  0.68964993    -0.15800
F2639       F  0.07991858  0.49103041  0.71203142    -0.19300
F2640       F  0.09748401  0.62309408  0.68247860    -0.22700
F2641       F  0.13937760  0.63201595  0.67162734    -0.24100
F2642       F  0.12946843  0.63206024  0.70921937    -0.18100
F2643       F  0.06436072  0.60806390  0.58619894    -0.20600
F2644       F  0.08882746  0.64722590  0.60680003    -0.21800
F2645       F  0.05150332  0.61080211  0.62227140    -0.19000
F2646       F  0.16513705  0.58511818  0.62687691    -0.19100
F2647       F  0.12718913  0.54870056  0.64126579    -0.22900
F2648       F  0.15270711  0.58619233  0.66347320    -0.24500
C2649       C  0.21915245  0.64572719  0.79401139    -0.11300
C2650       C  0.20480937  0.65888337  0.79936663     0.11300
C2651       C  0.17597983  0.64284068  0.80300430    -0.03100
C2652       C  0.16224961  0.61424902  0.79910185    -0.05800
C2653       C  0.17658151  0.60144654  0.79226387    -0.16600
C2654       C  0.20570748  0.61710327  0.79173992     0.02300
C2655       C  0.22036508  0.68940764  0.79780914     0.12300
C2656       C  0.15974086  0.65579900  0.81058638     0.62900
H2657       H  0.14002750  0.60198170  0.80000025     0.12300
C2658       C  0.22310199  0.60436825  0.78830002     0.55000
H2659       H  0.24113900  0.65808614  0.79103005     0.08100
C2660       C  0.24210263  0.70644582  0.81319642    -0.05700
C2661       C  0.26039249  0.73409999  0.80702300    -0.06500
C2662       C  0.25687228  0.74515289  0.78658345    -0.16100
C2663       C  0.23364487  0.72892589  0.77249261    -0.01600
C2664       C  0.21610821  0.70103586  0.77805444    -0.09200
C2665       C  0.24614997  0.69549286  0.83584798     0.65100
H2666       H  0.27827656  0.74703545  0.81761855     0.10500
C2667       C  0.22828309  0.74077779  0.75105552     0.63500
H2668       H  0.19980602  0.68767994  0.76621930     0.07900
F2669       F  0.20976071  0.57763687  0.79642732    -0.19600
F2670       F  0.24752763  0.61909810  0.80044235    -0.15800
F2671       F  0.22908930  0.60469512  0.76502324    -0.19300
F2672       F  0.16001473  0.67274863  0.79341089    -0.22700
F2673       F  0.17117906  0.67106182  0.83049578    -0.24100
F2674       F  0.13256913  0.63613320  0.81531837    -0.18100
F2675       F  0.24934601  0.74865448  0.73520738    -0.20600
F2676       F  0.22680453  0.76342377  0.75716875    -0.21800
F2677       F  0.20376012  0.72193168  0.74046631    -0.19000
F2678       F  0.26633859  0.71632492  0.84935170    -0.19100
F2679       F  0.25383840  0.67658902  0.83165108    -0.22900
F2680       F  0.22191074  0.68300050  0.84840569    -0.24500
C2681       C  0.31419418  0.57757292  0.79278877    -0.11300
C2682       C  0.30032924  0.54890652  0.79488519     0.11300
C2683       C  0.31560891  0.53583851  0.79647201    -0.03100
C2684       C  0.34447723  0.55204976  0.79467442    -0.05800
C2685       C  0.35820318  0.58056136  0.79082092    -0.16600
C2686       C  0.34296779  0.59379068  0.79156947     0.02300
C2687       C  0.27004445  0.53341588  0.79178717     0.12300
C2688       C  0.30145540  0.50486532  0.79897507     0.62900
H2689       H  0.35635420  0.54219606  0.79452911     0.12300
C2690       C  0.35631539  0.62474542  0.79024482     0.55000
H2691       H  0.30222521  0.58730031  0.79130551     0.08100
C2692       C  0.25181830  0.53286895  0.80887748    -0.05700
C2693       C  0.22430280  0.52292689  0.80263633    -0.06500
C2694       C  0.21494450  0.51376250  0.78006553    -0.16100
C2695       C  0.23268233  0.51284371  0.76344692    -0.01600
C2696       C  0.26010820  0.52286130  0.76958592    -0.09200
C2697       C  0.26144746  0.54311323  0.83338473     0.65100
H2698       H  0.21024795  0.52350097  0.81494660     0.10500
C2699       C  0.22279282  0.50234896  0.73903648     0.63500
H2700       H  0.27446814  0.52399438  0.75665915     0.07900
F2701       F  0.34110358  0.63307034  0.80268652    -0.19600
F2702       F  0.35770843  0.63258921  0.76738547    -0.15800
F2703       F  0.38245717  0.63809060  0.79959059    -0.19300
F2704       F  0.28642908  0.49202559  0.77927778    -0.22700
F2705       F  0.28396763  0.49613048  0.81787963    -0.24100
F2706       F  0.32018667  0.49668237  0.80219538    -0.18100
F2707       F  0.21576607  0.51926149  0.72793116    -0.20600
F2708       F  0.19999910  0.47598275  0.74001648    -0.21800
F2709       F  0.24279345  0.50164652  0.72593103    -0.19000
F2710       F  0.24020608  0.54016397  0.84725449    -0.19100
F2711       F  0.28180088  0.57061503  0.83316334    -0.22900
F2712       F  0.27171648  0.52828868  0.84330371    -0.24500
C2713       C  0.31317131  0.47125472  0.43387002    -0.11300
C2714       C  0.30022970  0.48164109  0.42045194     0.11300
C2715       C  0.28122841  0.48728139  0.43100325    -0.03100
C2716       C  0.27681886  0.48348789  0.45512483    -0.05800
C2717       C  0.29088520  0.47442218  0.46882476    -0.16600
C2718       C  0.30908134  0.46772266  0.45796765     0.02300
C2719       C  0.30727971  0.48643388  0.39535168     0.12300
C2720       C  0.26580598  0.49733586  0.41683663     0.62900
H2721       H  0.26280487  0.48820975  0.46357499     0.12300
C2722       C  0.32421267  0.45682527  0.47153826     0.55000
H2723       H  0.32718252  0.46661308  0.42528510     0.08100
C2724       C  0.33140096  0.51022730  0.38729385    -0.05700
C2725       C  0.33689943  0.51329880  0.36330257    -0.06500
C2726       C  0.31954692  0.49306653  0.34714374    -0.16100
C2727       C  0.29579284  0.46860541  0.35557755    -0.01600
C2728       C  0.29014740  0.46597430  0.37956846    -0.09200
C2729       C  0.35155588  0.53198228  0.40407886     0.65100
H2730       H  0.35506587  0.53171477  0.35701520     0.10500
C2731       C  0.27659627  0.44487476  0.33978653     0.63500
H2732       H  0.27219331  0.44771021  0.38636540     0.07900
F2733       F  0.34485493  0.47775633  0.48458921    -0.19600
F2734       F  0.33623223  0.44664136  0.45704030    -0.15800
F2735       F  0.30611769  0.43568901  0.48599768    -0.19300
F2736       F  0.24919689  0.47749393  0.40084984    -0.22700
F2737       F  0.28419358  0.52120539  0.40523925    -0.24100
F2738       F  0.24929099  0.50281191  0.43061408    -0.18100
F2739       F  0.25745576  0.42202914  0.35221205    -0.20600
F2740       F  0.29158530  0.43710067  0.32639792    -0.21800
F2741       F  0.26227528  0.45262571  0.32564097    -0.19000
F2742       F  0.37252523  0.55455346  0.39262489    -0.19100
F2743       F  0.36328249  0.52100080  0.41780431    -0.22900
F2744       F  0.33815124  0.54101358  0.41811568    -0.24500
C2745       C  0.20568500  0.54113932  0.50757570    -0.11300
C2746       C  0.19821415  0.55145796  0.52646816     0.11300
C2747       C  0.20272229  0.54571335  0.54933622    -0.03100
C2748       C  0.21561268  0.53067622  0.55244305    -0.05800
C2749       C  0.22456440  0.52158846  0.53362543    -0.16600
C2750       C  0.21933533  0.52665673  0.51070671     0.02300
C2751       C  0.18835002  0.57060895  0.52216225     0.12300
C2752       C  0.19459445  0.55599379  0.57044285     0.62900
H2753       H  0.21920395  0.52619051  0.56984280     0.12300
C2754       C  0.22941731  0.51830777  0.48970542     0.55000
H2755       H  0.20166166  0.54549936  0.49028979     0.08100
C2756       C  0.20709725  0.59879653  0.51758364    -0.05700
C2757       C  0.19774450  0.61717363  0.51917499    -0.06500
C2758       C  0.17039582  0.60825856  0.52505644    -0.16100
C2759       C  0.15104998  0.57966365  0.52739362    -0.01600
C2760       C  0.16044497  0.56123315  0.52565460    -0.09200
C2761       C  0.23710899  0.60954535  0.51199284     0.65100
H2762       H  0.21213907  0.63900499  0.51702285     0.10500
C2763       C  0.12107466  0.56875427  0.53315775     0.63500
H2764       H  0.14640954  0.53946686  0.52849545     0.07900
F2765       F  0.22490189  0.52804010  0.46929278    -0.19600
F2766       F  0.21573223  0.48998905  0.48821145    -0.15800
F2767       F  0.25738537  0.52889810  0.49157796    -0.19300
F2768       F  0.16637401  0.54404154  0.57108460    -0.22700
F2769       F  0.20695712  0.58424308  0.56947191    -0.24100
F2770       F  0.20250698  0.54958650  0.59096962    -0.18100
F2771       F  0.10613020  0.54044237  0.53545062    -0.20600
F2772       F  0.10926661  0.57558498  0.51560100    -0.21800
F2773       F  0.11913149  0.57996409  0.55383885    -0.19000
F2774       F  0.25198235  0.63773997  0.50884590    -0.19100
F2775       F  0.23890789  0.59754685  0.49175950    -0.22900
F2776       F  0.24913497  0.60339893  0.52984958    -0.24500
C2777       C  0.38006390  0.53465562  0.64081612    -0.11300
C2778       C  0.37537100  0.51239166  0.65452571     0.11300
C2779       C  0.35658366  0.48521196  0.64696758    -0.03100
C2780       C  0.34188346  0.48142045  0.62626466    -0.05800
C2781       C  0.34544770  0.50391545  0.61340255    -0.16600
C2782       C  0.36549486  0.53095424  0.62033174     0.02300
C2783       C  0.38797607  0.51944747  0.67790721     0.12300
C2784       C  0.35224361  0.46053284  0.66057368     0.62900
H2785       H  0.32667174  0.46092707  0.62053409     0.12300
C2786       C  0.37124149  0.55595018  0.60639797     0.55000
H2787       H  0.39434294  0.55526837  0.64702637     0.08100
C2788       C  0.41688254  0.53640599  0.68059870    -0.05700
C2789       C  0.42729984  0.55385813  0.69998805    -0.06500
C2790       C  0.40967360  0.55364051  0.71706486    -0.16100
C2791       C  0.38114930  0.53415213  0.71589199    -0.01600
C2792       C  0.37069093  0.51742380  0.69614830    -0.09200
C2793       C  0.43696771  0.53868969  0.66217360     0.65100
H2794       H  0.44917934  0.56874424  0.70117882     0.10500
C2795       C  0.36174091  0.53232509  0.73483184     0.63500
H2796       H  0.34865151  0.50499168  0.69368688     0.07900
F2797       F  0.39400136  0.57983603  0.61457534    -0.19600
F2798       F  0.34887689  0.55915688  0.60771048    -0.15800
F2799       F  0.37624394  0.55264851  0.58351716    -0.19300
F2800       F  0.34020580  0.45915833  0.68174296    -0.22700
F2801       F  0.37727671  0.46274048  0.66420526    -0.24100
F2802       F  0.33535469  0.43617217  0.64886187    -0.18100
F2803       F  0.36190575  0.55660989  0.73599371    -0.20600
F2804       F  0.37015123  0.52766902  0.75585760    -0.21800
F2805       F  0.33497519  0.51110706  0.73093866    -0.19000
F2806       F  0.45921828  0.53945513  0.67251566    -0.19100
F2807       F  0.44627031  0.56262315  0.64968343    -0.22900
F2808       F  0.42507198  0.51655506  0.64710910    -0.24500
C2809       C  0.16120652  0.46994509  0.65749096    -0.11300
C2810       C  0.15671311  0.44343383  0.65883905     0.11300
C2811       C  0.14381391  0.42714710  0.67861167    -0.03100
C2812       C  0.13852017  0.43924253  0.69762770    -0.05800
C2813       C  0.14531298  0.46681937  0.69717309    -0.16600
C2814       C  0.15541937  0.48196918  0.67612439     0.02300
C2815       C  0.17001996  0.43588790  0.64067267     0.12300
C2816       C  0.13511356  0.39707637  0.67927128     0.62900
H2817       H  0.12986288  0.42738460  0.71331338     0.12300
C2818       C  0.16079791  0.51084693  0.67297355     0.55000
H2819       H  0.17088505  0.48185152  0.64197890     0.08100
C2820       C  0.16236977  0.43353688  0.61707978    -0.05700
C2821       C  0.18207647  0.43862069  0.59997751    -0.06500
C2822       C  0.20899316  0.44599215  0.60583335    -0.16100
C2823       C  0.21533845  0.44456450  0.62935150    -0.01600
C2824       C  0.19568964  0.43973618  0.64641306    -0.09200
C2825       C  0.13437903  0.42737243  0.60914177     0.65100
H2826       H  0.17694014  0.43893024  0.58194137     0.10500
C2827       C  0.24311966  0.44958134  0.63677854     0.63500
H2828       H  0.20138242  0.44175901  0.66454351     0.07900
F2829       F  0.16482937  0.51867363  0.64989241    -0.19600
F2830       F  0.18414787  0.52955385  0.68499706    -0.15800
F2831       F  0.13852862  0.51202462  0.68083224    -0.19300
F2832       F  0.15763759  0.39432135  0.67659519    -0.22700
F2833       F  0.11674875  0.38322944  0.66148964    -0.24100
F2834       F  0.12235670  0.38476352  0.69999918    -0.18100
F2835       F  0.26242960  0.47743676  0.63676521    -0.20600
F2836       F  0.25147130  0.43629354  0.62185409    -0.21800
F2837       F  0.24194294  0.43966985  0.65891041    -0.19000
F2838       F  0.12304366  0.40493087  0.59441345    -0.19100
F2839       F  0.13733450  0.44978628  0.59726077    -0.22900
F2840       F  0.11620976  0.42134730  0.62730170    -0.24500
C2841       C  0.38189602  0.61159858  0.50857938    -0.11300
C2842       C  0.39066642  0.63136564  0.52628198     0.11300
C2843       C  0.38285496  0.62285646  0.54953873    -0.03100
C2844       C  0.36544908  0.59479181  0.55413402    -0.05800
C2845       C  0.35608625  0.57493687  0.53654601    -0.16600
C2846       C  0.36479664  0.58324023  0.51337325     0.02300
C2847       C  0.40690105  0.66106496  0.52043874     0.12300
C2848       C  0.39226993  0.64333704  0.56948331     0.62900
H2849       H  0.35833008  0.58812481  0.57165684     0.12300
C2850       C  0.35527208  0.56242163  0.49381656     0.55000
H2851       H  0.38815504  0.61862323  0.49094741     0.08100
C2852       C  0.43588860  0.67564570  0.51829840    -0.05700
C2853       C  0.45044203  0.70453471  0.51938717    -0.06500
C2854       C  0.43687779  0.71876946  0.52361755    -0.16100
C2855       C  0.40773867  0.70426136  0.52351380    -0.01600
C2856       C  0.39321080  0.67552628  0.52118395    -0.09200
C2857       C  0.45134258  0.66071533  0.51600877     0.65100
H2858       H  0.47270475  0.71606801  0.51896440     0.10500
C2859       C  0.39191839  0.71864411  0.52728104     0.63500
H2860       H  0.37097377  0.66387953  0.52239737     0.07900
F2861       F  0.36554953  0.54544896  0.49707157    -0.19600
F2862       F  0.36425862  0.57499195  0.47242353    -0.15800
F2863       F  0.32684888  0.54670723  0.49340830    -0.19300
F2864       F  0.38010697  0.65879866  0.56781071    -0.22700
F2865       F  0.42053648  0.66063735  0.56896644    -0.24100
F2866       F  0.38523476  0.63032692  0.59081636    -0.18100
F2867       F  0.36448057  0.70187240  0.52139527    -0.20600
F2868       F  0.40294025  0.74206353  0.51376849    -0.21800
F2869       F  0.39321095  0.72574520  0.55036834    -0.19000
F2870       F  0.47953370  0.67879425  0.51539007    -0.19100
F2871       F  0.44364843  0.64560923  0.49571040    -0.22900
F2872       F  0.44538881  0.64319965  0.53458952    -0.24500
C2873       C  0.26943821  0.35884243  0.57152486    -0.11300
C2874       C  0.24320231  0.33778667  0.56471454     0.11300
C2875       C  0.22729049  0.34388945  0.55001680    -0.03100
C2876       C  0.23821495  0.37120826  0.54281760    -0.05800
C2877       C  0.26386083  0.39288025  0.55069863    -0.16600
C2878       C  0.28007961  0.38645124  0.56503014     0.02300
C2879       C  0.23109329  0.31051811  0.57608672     0.12300
C2880       C  0.19818127  0.32190009  0.54308087     0.62900
H2881       H  0.22598442  0.37603444  0.53179742     0.12300
C2882       C  0.30763647  0.40848873  0.57475517     0.55000
H2883       H  0.28091534  0.35356228  0.58305989     0.08100
C2884       C  0.23372185  0.28889369  0.56709475    -0.05700
C2885       C  0.21789338  0.26255809  0.57715378    -0.06500
C2886       C  0.20038388  0.25775505  0.59614114    -0.16100
C2887       C  0.20075133  0.28037756  0.60682628    -0.01600
C2888       C  0.21562574  0.30624522  0.59623304    -0.09200
C2889       C  0.25304333  0.29369400  0.54705966     0.65100
H2890       H  0.21810235  0.24529975  0.56956797     0.10500
C2891       C  0.18470790  0.27773569  0.62871740     0.63500
H2892       H  0.21455204  0.32327729  0.60334137     0.07900
F2893       F  0.32613464  0.42168935  0.55686645    -0.19600
F2894       F  0.31878731  0.39770997  0.58946081    -0.15800
F2895       F  0.30433932  0.42724816  0.58727906    -0.19300
F2896       F  0.18147796  0.31264800  0.56249322    -0.22700
F2897       F  0.19808459  0.29998331  0.53275613    -0.24100
F2898       F  0.18694031  0.33178383  0.52754814    -0.18100
F2899       F  0.19859881  0.30154859  0.64178592    -0.20600
F2900       F  0.18121699  0.25634656  0.64253188    -0.21800
F2901       F  0.15927151  0.27341502  0.62277604    -0.19000
F2902       F  0.25214062  0.26982690  0.54070980    -0.19100
F2903       F  0.27969223  0.31288709  0.55351015    -0.22900
F2904       F  0.24616533  0.30336559  0.52792950    -0.24500
C2905       C  0.86203465  0.63016389  0.89825646    -0.11300
C2906       C  0.88565557  0.65005161  0.90985575     0.11300
C2907       C  0.89577303  0.64217712  0.92884123    -0.03100
C2908       C  0.88113103  0.61443440  0.93607623    -0.05800
C2909       C  0.85668517  0.59484201  0.92507721    -0.16600
C2910       C  0.84758693  0.60257968  0.90526914     0.02300
C2911       C  0.89774171  0.67920504  0.90273283     0.12300
C2912       C  0.92126925  0.66320855  0.94189251     0.62900
H2913       H  0.88777510  0.60820980  0.95117107     0.12300
C2914       C  0.82219220  0.58202336  0.89182626     0.55000
H2915       H  0.85430126  0.63664669  0.88409271     0.08100
C2916       C  0.91305416  0.68991533  0.88195914    -0.05700
C2917       C  0.92181409  0.71710935  0.87552615    -0.06500
C2918       C  0.91508755  0.73334342  0.88887761    -0.16100
C2919       C  0.90004040  0.72274049  0.90974033    -0.01600
C2920       C  0.89155280  0.69571900  0.91628854    -0.09200
C2921       C  0.91948412  0.67250405  0.86637158     0.65100
H2922       H  0.93310564  0.72559170  0.85953731     0.10500
C2923       C  0.89258047  0.73975469  0.92478175     0.63500
H2924       H  0.87923147  0.68689845  0.93175766     0.07900
F2925       F  0.82153017  0.59184753  0.87007027    -0.19600
F2926       F  0.79889502  0.57674288  0.90376642    -0.15800
F2927       F  0.82191452  0.55784645  0.88881448    -0.19300
F2928       F  0.91580157  0.68076394  0.95400358    -0.22700
F2929       F  0.94260333  0.67834069  0.92651456    -0.24100
F2930       F  0.92979498  0.65084899  0.95756151    -0.18100
F2931       F  0.87499712  0.74510471  0.91277856    -0.20600
F2932       F  0.91610449  0.76429898  0.93063391    -0.21800
F2933       F  0.87954808  0.72628581  0.94508862    -0.19000
F2934       F  0.93713393  0.68779279  0.84850822    -0.19100
F2935       F  0.89550910  0.65151833  0.85664954    -0.22900
F2936       F  0.93180068  0.66133263  0.87907587    -0.24500
C2937       C  0.85922081  0.44341954  0.80839906    -0.11300
C2938       C  0.84657454  0.45883387  0.80989947     0.11300
C2939       C  0.83619082  0.46415450  0.78966908    -0.03100
C2940       C  0.83521866  0.45040708  0.76911332    -0.05800
C2941       C  0.84448452  0.43197372  0.76844981    -0.16600
C2942       C  0.85828989  0.42970143  0.78787740     0.02300
C2943       C  0.84046853  0.46519404  0.83322637     0.12300
C2944       C  0.82501283  0.48316933  0.79017064     0.62900
H2945       H  0.82487754  0.45200364  0.75405876     0.12300
C2946       C  0.87144478  0.41245998  0.78816687     0.55000
H2947       H  0.86798595  0.44031851  0.82388762     0.08100
C2948       C  0.81653400  0.44567606  0.84528641    -0.05700
C2949       C  0.81104408  0.45289898  0.86692921    -0.06500
C2950       C  0.82838955  0.47891142  0.87699363    -0.16100
C2951       C  0.85306323  0.49813133  0.86518960    -0.01600
C2952       C  0.85858423  0.49076574  0.84335362    -0.09200
C2953       C  0.79659284  0.41733082  0.83524957     0.65100
H2954       H  0.79270991  0.43796963  0.87616589     0.10500
C2955       C  0.87334600  0.52629800  0.87510708     0.63500
H2956       H  0.87698671  0.50500386  0.83380304     0.07900
F2957       F  0.89893684  0.42908133  0.79384079    -0.19600
F2958       F  0.86989116  0.40022936  0.76704646    -0.15800
F2959       F  0.85872663  0.39212277  0.80476882    -0.19300
F2960       F  0.84535043  0.50892836  0.79763567    -0.22700
F2961       F  0.80281465  0.47312152  0.80510848    -0.24100
F2962       F  0.81649819  0.48596179  0.76845209    -0.18100
F2963       F  0.88427535  0.52345534  0.89551718    -0.20600
F2964       F  0.86025329  0.54056194  0.87930617    -0.21800
F2965       F  0.89499502  0.54186061  0.86006431    -0.19000
F2966       F  0.77455455  0.40167967  0.84991743    -0.19100
F2967       F  0.80992402  0.40321017  0.83164724    -0.22900
F2968       F  0.78621522  0.41982095  0.81440999    -0.24500
C2969       C  0.95135967  0.40732085  0.71211194    -0.11300
C2970       C  0.95510933  0.39338738  0.73033431     0.11300
C2971       C  0.93195641  0.37058447  0.74082305    -0.03100
C2972       C  0.90565697  0.36336280  0.73332691    -0.05800
C2973       C  0.90189284  0.37809716  0.71583394    -0.16600
C2974       C  0.92506238  0.39976098  0.70429257     0.02300
C2975       C  0.98300462  0.40644335  0.74026754     0.12300
C2976       C  0.93358372  0.35381018  0.76042787     0.62900
H2977       H  0.88780167  0.34664870  0.74192788     0.12300
C2978       C  0.92226900  0.41495572  0.68390173     0.55000
H2979       H  0.96929860  0.42513996  0.70473540     0.08100
C2980       C  0.00492810  0.40641114  0.72877685    -0.05700
C2981       C  0.03162650  0.42273847  0.73782734    -0.06500
C2982       C  0.03658481  0.43862982  0.75790973    -0.16100
C2983       C  0.01419432  0.43672614  0.77039052    -0.01600
C2984       C  0.98771848  0.42088924  0.76108501    -0.09200
C2985       C  0.99993778  0.38899250  0.70729942     0.65100
H2986       H  0.04896350  0.42409488  0.72876193     0.10500
C2987       C  0.01806756  0.45116511  0.79348577     0.63500
H2988       H  0.97046989  0.42027064  0.76967145     0.07900
F2989       F  0.94708882  0.43099651  0.67249526    -0.19600
F2990       F  0.91340318  0.43203706  0.69153050    -0.15800
F2991       F  0.90363833  0.39632130  0.66807284    -0.19300
F2992       F  0.92213054  0.35757950  0.78019296    -0.22700
F2993       F  0.96012742  0.36069976  0.76539350    -0.24100
F2994       F  0.91875762  0.32627143  0.75448278    -0.18100
F2995       F  0.02959136  0.47903408  0.79001396    -0.20600
F2996       F  0.03503538  0.44689523  0.80764068    -0.21800
F2997       F  0.99329097  0.44129251  0.80497180    -0.19000
F2998       F  0.02366627  0.39020217  0.69992376    -0.19100
F2999       F  0.99060278  0.39794758  0.68933699    -0.22900
F3000       F  0.98043521  0.36187276  0.71217621    -0.24500
C3001       C  0.75394964  0.31505900  0.97798939    -0.11300
C3002       C  0.75379016  0.33349194  0.96207406     0.11300
C3003       C  0.73907705  0.32344122  0.94107771    -0.03100
C3004       C  0.72458323  0.29506734  0.93692129    -0.05800
C3005       C  0.72422696  0.27612414  0.95278376    -0.16600
C3006       C  0.73942824  0.28640890  0.97381458     0.02300
C3007       C  0.76871324  0.36335884  0.96755321     0.12300
C3008       C  0.73853938  0.34259753  0.92301994     0.62900
H3009       H  0.71357431  0.28755482  0.92074330     0.12300
C3010       C  0.74055568  0.26770842  0.99189392     0.55000
H3011       H  0.76569688  0.32344367  0.99376115     0.08100
C3012       C  0.75607118  0.37497870  0.98037039    -0.05700
C3013       C  0.76729496  0.40350739  0.97903473    -0.06500
C3014       C  0.79012848  0.42035764  0.96486503    -0.16100
C3015       C  0.80449334  0.40907046  0.95417181    -0.01600
C3016       C  0.79386099  0.38065727  0.95634953    -0.09200
C3017       C  0.72993483  0.35708993  0.99418712     0.65100
H3018       H  0.75679365  0.41253056  0.98732495     0.10500
C3019       C  0.82920549  0.42624400  0.93863769     0.63500
H3020       H  0.80346119  0.37123802  0.94719151     0.07900
F3021       F  0.75473287  0.28204275  0.01153677    -0.19600
F3022       F  0.75387567  0.25527651  0.98281662    -0.15800
F3023       F  0.71420186  0.24787937  0.99866793    -0.19300
F3024       F  0.76474056  0.36017912  0.91455926    -0.22700
F3025       F  0.72856837  0.35783843  0.93281146    -0.24100
F3026       F  0.72192948  0.32834057  0.90434718    -0.18100
F3027       F  0.83973761  0.41107505  0.92966327    -0.20600
F3028       F  0.84977133  0.44786886  0.95117192    -0.21800
F3029       F  0.82172130  0.43640174  0.92023259    -0.19000
F3030       F  0.72092585  0.37251918  0.00528714    -0.19100
F3031       F  0.73475817  0.34277879  0.01088063    -0.22900
F3032       F  0.70918738  0.33860418  0.97967615    -0.24500
C3033       C  0.74528966  0.22224517  0.83526547    -0.11300
C3034       C  0.77101949  0.24594365  0.83932842     0.11300
C3035       C  0.78122964  0.25256485  0.86228727    -0.03100
C3036       C  0.76379431  0.23707310  0.88064396    -0.05800
C3037       C  0.73688572  0.21525399  0.87655718    -0.16600
C3038       C  0.72834712  0.20616118  0.85354452     0.02300
C3039       C  0.78256291  0.26639582  0.82039492     0.12300
C3040       C  0.80938728  0.27681675  0.86840159     0.62900
H3041       H  0.77045185  0.24368716  0.89832620     0.12300
C3042       C  0.70101726  0.18063898  0.84744583     0.55000
H3043       H  0.73744917  0.21727474  0.81769324     0.08100
C3044       C  0.79454861  0.26295801  0.80024657    -0.05700
C3045       C  0.80077526  0.28122217  0.78165437    -0.06500
C3046       C  0.79494204  0.30237475  0.78258037    -0.16100
C3047       C  0.78480826  0.30691609  0.80369286    -0.01600
C3048       C  0.77877469  0.28865509  0.82215208    -0.09200
C3049       C  0.80028746  0.23988449  0.79834931     0.65100
H3050       H  0.80889427  0.27805755  0.76575361     0.10500
C3051       C  0.77960670  0.33029928  0.80703931     0.63500
H3052       H  0.76966017  0.29078406  0.83792216     0.07900
F3053       F  0.70531347  0.16527158  0.83131092    -0.19600
F3054       F  0.68380149  0.18831903  0.83792390    -0.15800
F3055       F  0.68817633  0.16395534  0.86643306    -0.19300
F3056       F  0.80637623  0.29616856  0.88029169    -0.22700
F3057       F  0.82575645  0.28916414  0.84915066    -0.24100
F3058       F  0.82280942  0.26796651  0.88251055    -0.18100
F3059       F  0.77521392  0.33366293  0.83011308    -0.20600
F3060       F  0.75647771  0.32491148  0.79481984    -0.21800
F3061       F  0.80210875  0.35476309  0.79954940    -0.19000
F3062       F  0.81547720  0.24246804  0.77871036    -0.19100
F3063       F  0.77582179  0.21485594  0.79728586    -0.22900
F3064       F  0.81500881  0.24019377  0.81747266    -0.24500
C3065       C  0.68178593  0.06942715  0.90790350    -0.11300
C3066       C  0.70683295  0.07497359  0.91733842     0.11300
C3067       C  0.71985137  0.09562016  0.93449268    -0.03100
C3068       C  0.70750100  0.11040154  0.94129690    -0.05800
C3069       C  0.68331478  0.10624935  0.93087087    -0.16600
C3070       C  0.66975155  0.08479382  0.91426529     0.02300
C3071       C  0.72126799  0.06224796  0.90639587     0.12300
C3072       C  0.74751985  0.10313410  0.94466492     0.62900
H3073       H  0.71757308  0.12652064  0.95414158     0.12300
C3074       C  0.64357773  0.07898556  0.90237969     0.55000
H3075       H  0.67244563  0.05377936  0.89459722     0.08100
C3076       C  0.71861575  0.03752958  0.91433160    -0.05700
C3077       C  0.73662172  0.02968849  0.90536333    -0.06500
C3078       C  0.75599554  0.04508012  0.88796643    -0.16100
C3079       C  0.75564306  0.06760137  0.87780674    -0.01600
C3080       C  0.73870861  0.07612874  0.88765138    -0.09200
C3081       C  0.69635165  0.01923121  0.93155160     0.65100
H3082       H  0.73599779  0.01171609  0.91218112     0.10500
C3083       C  0.77206660  0.08201333  0.85610339     0.63500
H3084       H  0.73939919  0.09425719  0.88109647     0.07900
F3085       F  0.62291921  0.07081861  0.91869277    -0.19600
F3086       F  0.63468070  0.05825509  0.88603289    -0.15800
F3087       F  0.64807559  0.10239431  0.89117574    -0.19300
F3088       F  0.76713931  0.11235565  0.92731892    -0.22700
F3089       F  0.74565195  0.08048782  0.95513381    -0.24100
F3090       F  0.75646051  0.12370848  0.96116560    -0.18100
F3091       F  0.76805412  0.06268885  0.83953030    -0.20600
F3092       F  0.79973773  0.09814236  0.86120725    -0.21800
F3093       F  0.76391551  0.09889832  0.84658259    -0.19000
F3094       F  0.69691133  0.99582289  0.93660458    -0.19100
F3095       F  0.67090155  0.01115592  0.92225696    -0.22900
F3096       F  0.69949242  0.03316455  0.95201888    -0.24500
C3097       C  0.68190082  0.25658812  0.67990656    -0.11300
C3098       C  0.66486462  0.24315567  0.69905918     0.11300
C3099       C  0.67646806  0.24693023  0.72146676    -0.03100
C3100       C  0.70471049  0.26576268  0.72415899    -0.05800
C3101       C  0.72135166  0.28043101  0.70527494    -0.16600
C3102       C  0.71022291  0.27552763  0.68272172     0.02300
C3103       C  0.63468854  0.22683193  0.69567946     0.12300
C3104       C  0.65903821  0.23170186  0.74252292     0.62900
H3105       H  0.71395732  0.26994057  0.74121542     0.12300
C3106       C  0.72816149  0.29097708  0.66205943     0.55000
H3107       H  0.67260837  0.25296779  0.66291530     0.08100
C3108       C  0.61898184  0.23948665  0.69530739    -0.05700
C3109       C  0.59019619  0.22270069  0.69597829    -0.06500
C3110       C  0.57679788  0.19394497  0.69802701    -0.16100
C3111       C  0.59265788  0.18129103  0.69704380    -0.01600
C3112       C  0.62146202  0.19814925  0.69526162    -0.09200
C3113       C  0.63259966  0.27059683  0.69548748     0.65100
H3114       H  0.57789603  0.23209707  0.69641450     0.10500
C3115       C  0.57973279  0.15045550  0.69953700     0.63500
H3116       H  0.63413012  0.18915773  0.69512095     0.07900
F3117       F  0.73939667  0.31890569  0.66506297    -0.19600
F3118       F  0.71339614  0.28321147  0.64157774    -0.15800
F3119       F  0.74916716  0.28571924  0.66005149    -0.19300
F3120       F  0.64774533  0.20376825  0.73968664    -0.22700
F3121       F  0.63813178  0.23697807  0.74528208    -0.24100
F3122       F  0.67438699  0.23952875  0.76270983    -0.18100
F3123       F  0.59923964  0.14296234  0.69937899    -0.20600
F3124       F  0.56190190  0.13711440  0.68132921    -0.21800
F3125       F  0.56558040  0.14173398  0.72031388    -0.19000
F3126       F  0.61347014  0.27858330  0.69577112    -0.19100
F3127       F  0.64871387  0.28163398  0.67590435    -0.22900
F3128       F  0.64893002  0.28146953  0.71494695    -0.24500
C3129       C  0.56414122  0.10181506  0.84544618    -0.11300
C3130       C  0.56999699  0.11991148  0.82701071     0.11300
C3131       C  0.59391939  0.14646294  0.82748505    -0.03100
C3132       C  0.61149888  0.15390016  0.84661326    -0.05800
C3133       C  0.60486802  0.13671342  0.86611568    -0.16600
C3134       C  0.58078568  0.10983817  0.86538531     0.02300
C3135       C  0.54846959  0.11280701  0.80953308     0.12300
C3136       C  0.59965939  0.16773825  0.80885414     0.62900
H3137       H  0.62979497  0.17423410  0.84708070     0.12300
C3138       C  0.57143801  0.09009138  0.88574725     0.55000
H3139       H  0.54530916  0.08187951  0.84462648     0.08100
C3140       C  0.54920346  0.10301369  0.78718848    -0.05700
C3141       C  0.53367661  0.10552095  0.76950391    -0.06500
C3142       C  0.51696040  0.11630367  0.77430702    -0.16100
C3143       C  0.51212575  0.12044367  0.79760532    -0.01600
C3144       C  0.52871410  0.11948707  0.81485700    -0.09200
C3145       C  0.56632332  0.09026538  0.78229275     0.65100
H3146       H  0.53603477  0.10100400  0.75171730     0.10500
C3147       C  0.49080706  0.12729119  0.80485111     0.63500
H3148       H  0.52730610  0.12548697  0.83241546     0.07900
F3149       F  0.59112506  0.08368044  0.89060895    -0.19600
F3150       F  0.54709158  0.06568414  0.88119103    -0.15800
F3151       F  0.56710597  0.10189902  0.90497735    -0.19300
F3152       F  0.57911797  0.17376890  0.80907907    -0.22700
F3153       F  0.60059472  0.15790318  0.78719681    -0.24100
F3154       F  0.62448069  0.19201535  0.81236618    -0.18100
F3155       F  0.47598865  0.11114560  0.82356409    -0.20600
F3156       F  0.47226365  0.12245354  0.78736312    -0.21800
F3157       F  0.50391310  0.15457475  0.81137041    -0.19000
F3158       F  0.56384407  0.08173872  0.75947047    -0.19100
F3159       F  0.55743362  0.06760668  0.79643119    -0.22900
F3160       F  0.59379489  0.10880778  0.78669874    -0.24500
C3161       C  0.37702749  0.01386557  0.72240642    -0.11300
C3162       C  0.38393764  0.00652924  0.74336221     0.11300
C3163       C  0.40277267  0.02724140  0.75869925    -0.03100
C3164       C  0.41521335  0.05484196  0.75188556    -0.05800
C3165       C  0.40965638  0.06200382  0.73028507    -0.16600
C3166       C  0.38968730  0.04153227  0.71559457     0.02300
C3167       C  0.37436750  0.97723390  0.74731981     0.12300
C3168       C  0.41077805  0.02017317  0.78158080     0.62900
H3169       H  0.43084703  0.07098547  0.76267837     0.12300
C3170       C  0.38250743  0.04910842  0.69265316     0.55000
H3171       H  0.36273145  0.99767922  0.71089759     0.08100
C3172       C  0.34871400  0.95857397  0.75751302    -0.05700
C3173       C  0.34275548  0.93195365  0.76286724    -0.06500
C3174       C  0.36119240  0.92326613  0.75749264    -0.16100
C3175       C  0.38584382  0.94147505  0.74518587    -0.01600
C3176       C  0.39202912  0.96829018  0.74062113    -0.09200
C3177       C  0.32768808  0.96667844  0.76231138     0.65100
H3178       H  0.32363651  0.91779263  0.77154616     0.10500
C3179       C  0.40534870  0.93285520  0.73619554     0.63500
H3180       H  0.41113099  0.98287333  0.73209111     0.07900
F3181       F  0.37429861  0.06771974  0.69648544    -0.19600
F3182       F  0.36132806  0.02638110  0.68155005    -0.15800
F3183       F  0.40521965  0.06089894  0.67818187    -0.19300
F3184       F  0.42415133  0.00616662  0.77752869    -0.22700
F3185       F  0.38758032  0.00387692  0.79480321    -0.24100
F3186       F  0.42816906  0.04347156  0.79435777    -0.18100
F3187       F  0.42499723  0.95224231  0.72133269    -0.20600
F3188       F  0.39069066  0.90846142  0.72401508    -0.21800
F3189       F  0.41903845  0.92961332  0.75446223    -0.19000
F3190       F  0.30401789  0.94544862  0.77236371    -0.19100
F3191       F  0.32044833  0.97357473  0.74172578    -0.22900
F3192       F  0.33852788  0.98899631  0.77710427    -0.24500
C3193       C  0.52480267  0.33575677  0.67636483    -0.11300
C3194       C  0.53837321  0.32246137  0.68334420     0.11300
C3195       C  0.56634483  0.33802036  0.68970649    -0.03100
C3196       C  0.57851003  0.36643942  0.69272043    -0.05800
C3197       C  0.56348250  0.37942900  0.68955124    -0.16600
C3198       C  0.53686743  0.36426262  0.67933578     0.02300
C3199       C  0.52159577  0.29281185  0.68859765     0.12300
C3200       C  0.58268313  0.32436151  0.69438616     0.62900
H3201       H  0.59938269  0.37844011  0.69915199     0.12300
C3202       C  0.52039184  0.37726401  0.67283855     0.55000
H3203       H  0.50364306  0.32317674  0.67072565     0.08100
C3204       C  0.50896914  0.28384236  0.71064654    -0.05700
C3205       C  0.49601149  0.25589501  0.71604593    -0.06500
C3206       C  0.49568036  0.23703606  0.70034841    -0.16100
C3207       C  0.50728001  0.24568049  0.67797851    -0.01600
C3208       C  0.51987760  0.27371080  0.67229261    -0.09200
C3209       C  0.51028848  0.30385867  0.72883359     0.65100
H3210       H  0.48716683  0.24864258  0.73310049     0.10500
C3211       C  0.50763373  0.22562588  0.66086670     0.63500
H3212       H  0.52959957  0.28114706  0.65555148     0.07900
F3213       F  0.51468555  0.38751349  0.69237289    -0.19600
F3214       F  0.49560924  0.35857380  0.66251097    -0.15800
F3215       F  0.53516751  0.39822630  0.65716596    -0.19300
F3216       F  0.58308826  0.31082770  0.67461924    -0.22700
F3217       F  0.57083069  0.30560351  0.71226638    -0.24100
F3218       F  0.60960980  0.34330054  0.70045218    -0.18100
F3219       F  0.48098022  0.20505216  0.65582366    -0.20600
F3220       F  0.52153295  0.21405075  0.67033453    -0.21800
F3221       F  0.52052425  0.23834065  0.64029842    -0.19000
F3222       F  0.49652871  0.29057063  0.74896645    -0.19100
F3223       F  0.49830453  0.31777899  0.72036328    -0.22900
F3224       F  0.53734710  0.32256420  0.73456391    -0.24500
C3225       C  0.66714994  0.50189116  0.83199312    -0.11300
C3226       C  0.69504717  0.52242033  0.83031594     0.11300
C3227       C  0.70518324  0.53816794  0.80979040    -0.03100
C3228       C  0.68720565  0.53145342  0.79092551    -0.05800
C3229       C  0.65983682  0.50926295  0.79191884    -0.16600
C3230       C  0.64904364  0.49566328  0.81336985     0.02300
C3231       C  0.71359329  0.52383110  0.84891013     0.12300
C3232       C  0.73522971  0.56071414  0.80724072     0.62900
H3233       H  0.69521757  0.54189486  0.77454611     0.12300
C3234       C  0.61900436  0.47376002  0.81700747     0.55000
H3235       H  0.65965981  0.48990274  0.84778451     0.08100
C3236       C  0.71484400  0.53515731  0.87101592    -0.05700
C3237       C  0.72978635  0.53168632  0.88863791    -0.06500
C3238       C  0.74356447  0.51753602  0.88465029    -0.16100
C3239       C  0.74437435  0.50859618  0.86172305    -0.01600
C3240       C  0.72852204  0.51113150  0.84453866    -0.09200
C3241       C  0.70007702  0.55034913  0.87603867     0.65100
H3242       H  0.72972784  0.53896931  0.90596210     0.10500
C3243       C  0.76151698  0.49624640  0.85493098     0.63500
H3244       H  0.72701448  0.50241856  0.82750627     0.07900
F3245       F  0.61060787  0.47628711  0.83893515    -0.19600
F3246       F  0.61567233  0.44803808  0.81501476    -0.15800
F3247       F  0.60214532  0.47611332  0.80121306    -0.19300
F3248       F  0.75152960  0.54939827  0.80666809    -0.22700
F3249       F  0.74316468  0.57877647  0.82567341    -0.24100
F3250       F  0.73989388  0.57558792  0.78704202    -0.18100
F3251       F  0.76477878  0.49632425  0.83112227    -0.20600
F3252       F  0.74881600  0.46931867  0.86242951    -0.21800
F3253       F  0.78750354  0.51136489  0.86446935    -0.19000
F3254       F  0.70594255  0.56177974  0.89802257    -0.19100
F3255       F  0.67198286  0.53251803  0.87446373    -0.22900
F3256       F  0.70812951  0.57136906  0.86022454    -0.24500
C3257       C  0.71363443  0.45775080  0.68006148    -0.11300
C3258       C  0.72425992  0.44865000  0.69733187     0.11300
C3259       C  0.71893098  0.45075362  0.72100579    -0.03100
C3260       C  0.70094328  0.45973155  0.72651960    -0.05800
C3261       C  0.68909901  0.46746890  0.70926029    -0.16600
C3262       C  0.69613109  0.46745820  0.68569334     0.02300
C3263       C  0.73981154  0.43560053  0.69051706     0.12300
C3264       C  0.73206424  0.44340607  0.74033850     0.62900
H3265       H  0.69543843  0.46024330  0.74443004     0.12300
C3266       C  0.68446995  0.47673888  0.66667058     0.55000
H3267       H  0.71857868  0.45645924  0.66214359     0.08100
C3268       C  0.72652437  0.40674451  0.68816396    -0.05700
C3269       C  0.74265202  0.39479082  0.68868881    -0.06500
C3270       C  0.77134358  0.41096554  0.69072331    -0.16100
C3271       C  0.78475298  0.43997239  0.68957818    -0.01600
C3272       C  0.76854720  0.45191900  0.68967562    -0.09200
C3273       C  0.69545303  0.38872979  0.68613871     0.65100
H3274       H  0.73289356  0.37263975  0.68899154     0.10500
C3275       C  0.81586239  0.45815926  0.68960620     0.63500
H3276       H  0.77811633  0.47400995  0.69073776     0.07900
F3277       F  0.65605640  0.46158881  0.66751025    -0.19600
F3278       F  0.69257318  0.47345163  0.64486648    -0.15800
F3279       F  0.69361677  0.50426270  0.66964471    -0.19300
F3280       F  0.76031702  0.46061468  0.73932817    -0.22700
F3281       F  0.72542919  0.41649963  0.73812182    -0.24100
F3282       F  0.72337446  0.44625299  0.76203283    -0.18100
F3283       F  0.82642912  0.45209641  0.67047711    -0.20600
F3284       F  0.82642135  0.45378464  0.70951591    -0.21800
F3285       F  0.82452346  0.48576933  0.68867272    -0.19000
F3286       F  0.68689723  0.36128021  0.68341090    -0.19100
F3287       F  0.68676058  0.39674878  0.66704799    -0.22900
F3288       F  0.68293040  0.39116859  0.70577781    -0.24500
C3289       C  0.55429797  0.55664546  0.72430465    -0.11300
C3290       C  0.56956368  0.57673993  0.74096981     0.11300
C3291       C  0.59364334  0.57914483  0.75020755    -0.03100
C3292       C  0.60167695  0.56100030  0.74225735    -0.05800
C3293       C  0.58592232  0.54012997  0.72600110    -0.16600
C3294       C  0.56195224  0.53825747  0.71647868     0.02300
C3295       C  0.55758863  0.59253026  0.75009049     0.12300
C3296       C  0.61025527  0.60024190  0.76882100     0.62900
H3297       H  0.61978469  0.56226448  0.74952192     0.12300
C3298       C  0.54409321  0.51703199  0.69829598     0.55000
H3299       H  0.53555006  0.55488949  0.71804181     0.08100
C3300       C  0.55785380  0.61379427  0.73730440    -0.05700
C3301       C  0.54157926  0.62411330  0.74513187    -0.06500
C3302       C  0.52496527  0.61352050  0.76500624    -0.16100
C3303       C  0.52662607  0.59382848  0.77880855    -0.01600
C3304       C  0.54254260  0.58330021  0.77074665    -0.09200
C3305       C  0.57439741  0.62478074  0.71507331     0.65100
H3306       H  0.54045701  0.63939247  0.73495313     0.10500
C3307       C  0.51168022  0.58357507  0.80186149     0.63500
H3308       H  0.54238527  0.56675880  0.78006051     0.07900
F3309       F  0.52497410  0.52229563  0.68893358    -0.19600
F3310       F  0.52976705  0.49118008  0.70821380    -0.15800
F3311       F  0.56029051  0.51726292  0.68028172    -0.19300
F3312       F  0.59487094  0.59412279  0.78890863    -0.22700
F3313       F  0.61746471  0.62618625  0.76141910    -0.24100
F3314       F  0.63416516  0.60071371  0.77405380    -0.18100
F3315       F  0.52207797  0.57059564  0.81475064    -0.20600
F3316       F  0.48404553  0.56492318  0.79815234    -0.21800
F3317       F  0.51475994  0.60540253  0.81486544    -0.19000
F3318       F  0.57392803  0.64724084  0.70667614    -0.19100
F3319       F  0.56373205  0.60460958  0.69820544    -0.22900
F3320       F  0.60149666  0.63290464  0.71904045    -0.24500
C3321       C  0.41319959  0.21897648  0.84782818    -0.11300
C3322       C  0.41862352  0.19767389  0.84879416     0.11300
C3323       C  0.42391081  0.18981954  0.87053669    -0.03100
C3324       C  0.42690902  0.20580701  0.89018749    -0.05800
C3325       C  0.42539241  0.22944690  0.88842076    -0.16600
C3326       C  0.41642610  0.23503637  0.86747847     0.02300
C3327       C  0.42674650  0.19003366  0.82688665     0.12300
C3328       C  0.42913026  0.16639664  0.87256437     0.62900
H3329       H  0.43350146  0.20172073  0.90645500     0.12300
C3330       C  0.41232143  0.25913800  0.86557203     0.55000
H3331       H  0.40934917  0.22486920  0.83109201     0.08100
C3332       C  0.40801075  0.17056378  0.81079575    -0.05700
C3333       C  0.41857217  0.16456157  0.79095089    -0.06500
C3334       C  0.44705061  0.17818162  0.78651353    -0.16100
C3335       C  0.46550061  0.19949566  0.80185101    -0.01600
C3336       C  0.45488004  0.20456553  0.82188379    -0.09200
C3337       C  0.37721668  0.15663114  0.81443935     0.65100
H3338       H  0.40462888  0.14909804  0.77876800     0.10500
C3339       C  0.49617967  0.21790354  0.79697552     0.63500
H3340       H  0.46863340  0.22016170  0.83409961     0.07900
F3341       F  0.39899403  0.25815514  0.84524908    -0.19600
F3342       F  0.43754155  0.28339562  0.86589769    -0.15800
F3343       F  0.39657632  0.25886802  0.88399489    -0.19300
F3344       F  0.45394487  0.17367827  0.86226152    -0.22700
F3345       F  0.40834492  0.14320855  0.86174977    -0.24100
F3346       F  0.43003914  0.15978986  0.89548734    -0.18100
F3347       F  0.50864896  0.24023567  0.81185767    -0.20600
F3348       F  0.50030423  0.22803812  0.77462195    -0.21800
F3349       F  0.50913558  0.20333598  0.79979652    -0.19000
F3350       F  0.36261298  0.13874842  0.79652015    -0.19100
F3351       F  0.36991132  0.17620356  0.81554830    -0.22900
F3352       F  0.36964833  0.14188573  0.83488137    -0.24500
C3353       C  0.50279038  0.40064145  0.84928097    -0.11300
C3354       C  0.48369595  0.38676262  0.83147832     0.11300
C3355       C  0.45943520  0.36118473  0.83632354    -0.03100
C3356       C  0.45679100  0.34888068  0.85804672    -0.05800
C3357       C  0.47709048  0.36188583  0.87509693    -0.16600
C3358       C  0.49985056  0.38863985  0.87112772     0.02300
C3359       C  0.49354863  0.39647213  0.80748222     0.12300
C3360       C  0.43632601  0.34592221  0.81902531     0.62900
H3361       H  0.43897898  0.32875174  0.86155730     0.12300
C3362       C  0.52206679  0.40347624  0.88928543     0.55000
H3363       H  0.52134871  0.42000295  0.84529085     0.08100
C3364       C  0.50295473  0.42371152  0.80019679    -0.05700
C3365       C  0.52111049  0.43455518  0.78118195    -0.06500
C3366       C  0.52947408  0.41873417  0.76917481    -0.16100
C3367       C  0.51788000  0.39068884  0.77504992    -0.01600
C3368       C  0.49989865  0.37998872  0.79406310    -0.09200
C3369       C  0.49564372  0.44233033  0.81288508     0.65100
H3370       H  0.52987935  0.45591920  0.77642154     0.10500
C3371       C  0.52557484  0.37242439  0.76210681     0.63500
H3372       H  0.49272796  0.35928897  0.79992989     0.07900
F3373       F  0.54216001  0.42955087  0.88213152    -0.19600
F3374       F  0.53448211  0.38864928  0.89366311    -0.15800
F3375       F  0.51063437  0.40610304  0.90955890    -0.19300
F3376       F  0.43570110  0.32253089  0.81164871    -0.22700
F3377       F  0.43911232  0.36179356  0.79993192    -0.24100
F3378       F  0.41149424  0.33825950  0.82957605    -0.18100
F3379       F  0.50879287  0.34509816  0.76828306    -0.20600
F3380       F  0.55241520  0.38030932  0.76707538    -0.21800
F3381       F  0.52294420  0.37448595  0.73851082    -0.19000
F3382       F  0.48927655  0.45632733  0.79704098    -0.19100
F3383       F  0.51789646  0.46119326  0.82593281    -0.22900
F3384       F  0.47313015  0.42777846  0.82732478    -0.24500
C3385       C  0.51482039  0.21402549  0.96346830    -0.11300
C3386       C  0.54302462  0.22933190  0.95859524     0.11300
C3387       C  0.55613268  0.25793142  0.95454881    -0.03100
C3388       C  0.54005110  0.27001122  0.95435060    -0.05800
C3389       C  0.51135171  0.25442681  0.95755474    -0.16600
C3390       C  0.49858883  0.22602334  0.96316335     0.02300
C3391       C  0.55755463  0.21436244  0.95460823     0.12300
C3392       C  0.58677227  0.27540365  0.94935233     0.62900
H3393       H  0.54969064  0.29168580  0.95045626     0.12300
C3394       C  0.46788181  0.20791990  0.96760018     0.55000
H3395       H  0.50538704  0.19217400  0.96638776     0.08100
C3396       C  0.56944268  0.20730668  0.97270013    -0.05700
C3397       C  0.58582785  0.19625512  0.96686190    -0.06500
C3398       C  0.59006218  0.19192812  0.94363653    -0.16100
C3399       C  0.57612269  0.19680113  0.92577848    -0.01600
C3400       C  0.55987316  0.20777199  0.93165676    -0.09200
C3401       C  0.56489886  0.21166355  0.99787402     0.65100
H3402       H  0.59634134  0.19199552  0.98026779     0.10500
C3403       C  0.57913914  0.19133522  0.90048280     0.63500
H3404       H  0.54989832  0.21264441  0.91818818     0.07900
F3405       F  0.46065874  0.21763631  0.98661223    -0.19600
F3406       F  0.46005872  0.18097939  0.97217460    -0.15800
F3407       F  0.45347757  0.20784575  0.94834868    -0.19300
F3408       F  0.59253890  0.26723369  0.92862776    -0.22700
F3409       F  0.60160177  0.27257827  0.96684171    -0.24100
F3410       F  0.59565661  0.30301849  0.94757542    -0.18100
F3411       F  0.56029832  0.19295140  0.88655786    -0.20600
F3412       F  0.57486443  0.16526851  0.89803091    -0.21800
F3413       F  0.60524493  0.21050030  0.89271081    -0.19000
F3414       F  0.57853983  0.20384970  0.01274742    -0.19100
F3415       F  0.53714725  0.19619323  0.00301978    -0.22900
F3416       F  0.57429603  0.23904670  0.00193266    -0.24500
C3417       C  0.65344728  0.41787938  0.97517635    -0.11300
C3418       C  0.64058636  0.43265438  0.97081088     0.11300
C3419       C  0.65634967  0.46165104  0.96987269    -0.03100
C3420       C  0.68517742  0.47475652  0.96996490    -0.05800
C3421       C  0.69813110  0.45951313  0.97077961    -0.16600
C3422       C  0.68219667  0.43086864  0.97509758     0.02300
C3423       C  0.61133702  0.41683492  0.96393078     0.12300
C3424       C  0.64270608  0.47836160  0.96780487     0.62900
H3425       H  0.69769160  0.49675470  0.96726956     0.12300
C3426       C  0.69522112  0.41375742  0.97844777     0.55000
H3427       H  0.64079458  0.39569744  0.97655789     0.08100
C3428       C  0.60382448  0.40760996  0.94082381    -0.05700
C3429       C  0.57588528  0.39052190  0.93556463    -0.06500
C3430       C  0.55534574  0.38192507  0.95259762    -0.16100
C3431       C  0.56289883  0.39171383  0.97572450    -0.01600
C3432       C  0.59101699  0.40918874  0.98092643    -0.09200
C3433       C  0.62527093  0.41475890  0.92194921     0.65100
H3434       H  0.56990820  0.38286498  0.91806608     0.10500
C3435       C  0.54178164  0.38289046  0.99508130     0.63500
H3436       H  0.59750988  0.41646748  0.99845873     0.07900
F3437       F  0.70317279  0.40870156  0.95728550    -0.19600
F3438       F  0.67698005  0.38871921  0.98865032    -0.15800
F3439       F  0.71791822  0.42749261  0.99273203    -0.19300
F3440       F  0.62552881  0.47297626  0.98661138    -0.22700
F3441       F  0.62736968  0.47153212  0.94769883    -0.24100
F3442       F  0.66182683  0.50630909  0.96736132    -0.18100
F3443       F  0.55402321  0.39285804  0.01644084    -0.20600
F3444       F  0.52634064  0.35452096  0.99645871    -0.21800
F3445       F  0.52467011  0.39281487  0.99086072    -0.19000
F3446       F  0.61334635  0.40515322  0.90043039    -0.19100
F3447       F  0.64059926  0.40305487  0.92705999    -0.22900
F3448       F  0.64263124  0.44291293  0.92031504    -0.24500
C3449       C  0.32637808  0.25541945  0.94442609    -0.11300
C3450       C  0.32302270  0.26130797  0.92151675     0.11300
C3451       C  0.34613131  0.28057015  0.90844756    -0.03100
C3452       C  0.37235869  0.29153727  0.91816429    -0.05800
C3453       C  0.37594882  0.28363814  0.94027713    -0.16600
C3454       C  0.35266042  0.26620602  0.95410233     0.02300
C3455       C  0.29532418  0.24520360  0.91106264     0.12300
C3456       C  0.34309418  0.28890858  0.88417436     0.62900
H3457       H  0.39040608  0.30523995  0.90799162     0.12300
C3458       C  0.35543161  0.25879911  0.97877965     0.55000
H3459       H  0.30825222  0.24105530  0.95421692     0.08100
C3460       C  0.28592385  0.21914484  0.90117952    -0.05700
C3461       C  0.25952069  0.20480361  0.89148713    -0.06500
C3462       C  0.24153667  0.21489023  0.89221650    -0.16100
C3463       C  0.25119169  0.24117415  0.90253368    -0.01600
C3464       C  0.27813225  0.25588260  0.91157733    -0.09200
C3465       C  0.30339729  0.20609645  0.90158767     0.65100
H3466       H  0.25252660  0.18490516  0.88383248     0.10500
C3467       C  0.23348221  0.25376913  0.90463599     0.63500
H3468       H  0.28600644  0.27581029  0.91957126     0.07900
F3469       F  0.36427911  0.24039892  0.97862593    -0.19600
F3470       F  0.33060624  0.24678822  0.99054113    -0.15800
F3471       F  0.37413609  0.28220927  0.99079635    -0.19300
F3472       F  0.32686804  0.30030930  0.88494260    -0.22700
F3473       F  0.33093836  0.26624127  0.86973359    -0.24100
F3474       F  0.36824917  0.30813156  0.87463964    -0.18100
F3475       F  0.24750524  0.27950903  0.91487965    -0.20600
F3476       F  0.21067831  0.23716275  0.91822061    -0.21800
F3477       F  0.22530652  0.25677472  0.88286984    -0.19000
F3478       F  0.29080329  0.18107598  0.89016268    -0.19100
F3479       F  0.30780673  0.20162576  0.92426543    -0.22900
F3480       F  0.32850005  0.22312843  0.89101733    -0.24500
C3481       C  0.80889141  0.52174578  0.06070181    -0.11300
C3482       C  0.83521149  0.52805513  0.06723165     0.11300
C3483       C  0.85557347  0.53487400  0.05013636    -0.03100
C3484       C  0.84885174  0.53550721  0.02681607    -0.05800
C3485       C  0.82226311  0.52856025  0.02001916    -0.16600
C3486       C  0.80183210  0.52163330  0.03733063     0.02300
C3487       C  0.83984689  0.52508240  0.09203934     0.12300
C3488       C  0.88393775  0.54052539  0.05641740     0.62900
H3489       H  0.86422631  0.54060025  0.01352073     0.12300
C3490       C  0.77235894  0.51269239  0.03137889     0.55000
H3491       H  0.79361993  0.51609934  0.07420689     0.08100
C3492       C  0.84456154  0.54533087  0.10864196    -0.05700
C3493       C  0.84556412  0.53960565  0.13214053    -0.06500
C3494       C  0.84164778  0.51431062  0.13953539    -0.16100
C3495       C  0.83814917  0.49452152  0.12275550    -0.01600
C3496       C  0.83703125  0.50025593  0.09919858    -0.09200
C3497       C  0.84765500  0.57248787  0.10168312     0.65100
H3498       H  0.84854478  0.55465784  0.14512308     0.10500
C3499       C  0.83437559  0.46707770  0.12955251     0.63500
H3500       H  0.83314888  0.48503419  0.08608783     0.07900
F3501       F  0.75562324  0.50456689  0.05082774    -0.19600
F3502       F  0.76156584  0.49064696  0.01624443    -0.15800
F3503       F  0.77161130  0.53425610  0.02132280    -0.19300
F3504       F  0.88170344  0.51720775  0.06585782    -0.22700
F3505       F  0.89622506  0.56164600  0.07238277    -0.24100
F3506       F  0.90101691  0.54795512  0.03723739    -0.18100
F3507       F  0.81195044  0.45325321  0.14417128    -0.20600
F3508       F  0.85772123  0.47127060  0.14064789    -0.21800
F3509       F  0.82994688  0.45051732  0.11046056    -0.19000
F3510       F  0.85390112  0.58990403  0.12047953    -0.19100
F3511       F  0.82340468  0.56785050  0.09212069    -0.22900
F3512       F  0.86855472  0.58571916  0.08559146    -0.24500
C3513       C  0.93943495  0.58172256  0.26090836    -0.11300
C3514       C  0.96011173  0.59783976  0.24481738     0.11300
C3515       C  0.95271992  0.60101167  0.22209088    -0.03100
C3516       C  0.92485969  0.58544891  0.21555448    -0.05800
C3517       C  0.90456334  0.56743182  0.23116437    -0.16600
C3518       C  0.91160400  0.56694697  0.25461613     0.02300
C3519       C  0.98889595  0.60669568  0.25085972     0.12300
C3520       C  0.97428158  0.61904446  0.20426481     0.62900
H3521       H  0.91910692  0.58545187  0.19767071     0.12300
C3522       C  0.89078594  0.55026634  0.27340611     0.55000
H3523       H  0.94514316  0.57926536  0.27823467     0.08100
C3524       C  0.00525796  0.62845339  0.26639716    -0.05700
C3525       C  0.03220068  0.63472270  0.27117068    -0.06500
C3526       C  0.04282360  0.61963655  0.26120176    -0.16100
C3527       C  0.02630683  0.59797073  0.24553048    -0.01600
C3528       C  0.99945512  0.59162687  0.24105449    -0.09200
C3529       C  0.99434666  0.64488983  0.27780839     0.65100
H3530       H  0.04509252  0.65124223  0.28302092     0.10500
C3531       C  0.03712848  0.58221589  0.23273565     0.63500
H3532       H  0.98625742  0.57461738  0.22971044     0.07900
F3533       F  0.89388588  0.56749689  0.29160471    -0.19600
F3534       F  0.89547510  0.53026069  0.28143554    -0.15800
F3535       F  0.86388148  0.53766421  0.26590104    -0.19300
F3536       F  0.98792137  0.60640311  0.19647709    -0.22700
F3537       F  0.99307772  0.64416360  0.21396565    -0.24100
F3538       F  0.96253349  0.62388076  0.18533917    -0.18100
F3539       F  0.01946827  0.56580343  0.21531881    -0.20600
F3540       F  0.04031149  0.56545131  0.24798969    -0.21800
F3541       F  0.06210615  0.60047240  0.22256342    -0.19000
F3542       F  0.01436598  0.66654759  0.29076228    -0.19100
F3543       F  0.97279057  0.62818543  0.29247849    -0.22900
F3544       F  0.98520027  0.65553914  0.26107466    -0.24500
C3545       C  0.42752577  0.12780798  0.55423588    -0.11300
C3546       C  0.44930800  0.14653129  0.56839030     0.11300
C3547       C  0.47213679  0.17019390  0.55845016    -0.03100
C3548       C  0.47208101  0.17463363  0.53450625    -0.05800
C3549       C  0.45039681  0.15590519  0.52037723    -0.16600
C3550       C  0.42766768  0.13214416  0.53020262     0.02300
C3551       C  0.44855383  0.14028413  0.59342777     0.12300
C3552       C  0.49667017  0.19037294  0.57300389     0.62900
H3553       H  0.48921738  0.19261739  0.52649011     0.12300
C3554       C  0.40379111  0.11162456  0.51529762     0.55000
H3555       H  0.41054447  0.10964587  0.56217840     0.08100
C3556       C  0.43522578  0.14771679  0.60995236    -0.05700
C3557       C  0.43893199  0.14473401  0.63362906    -0.06500
C3558       C  0.45484665  0.13388380  0.64116887    -0.16100
C3559       C  0.46568292  0.12374141  0.62430832    -0.01600
C3560       C  0.46250490  0.12745872  0.60068574    -0.09200
C3561       C  0.41719968  0.15868336  0.60255244     0.65100
H3562       H  0.42989567  0.15157167  0.64645641     0.10500
C3563       C  0.48018820  0.10868731  0.63081802     0.63500
H3564       H  0.47167990  0.12111316  0.58754385     0.07900
F3565       F  0.39242038  0.12467811  0.50396038    -0.19600
F3566       F  0.38332814  0.09042568  0.52836729    -0.15800
F3567       F  0.41300696  0.10036761  0.49906904    -0.19300
F3568       F  0.50945996  0.17743058  0.58193312    -0.22700
F3569       F  0.48816548  0.20016314  0.59107136    -0.24100
F3570       F  0.51587986  0.21267268  0.56009817    -0.18100
F3571       F  0.48395161  0.09615503  0.61178537    -0.20600
F3572       F  0.46459921  0.08838092  0.64687170    -0.21800
F3573       F  0.50581528  0.12695144  0.63995452    -0.19000
F3574       F  0.40632472  0.16491610  0.62140110    -0.19100
F3575       F  0.39554367  0.13908360  0.58939589    -0.22900
F3576       F  0.43228410  0.18227282  0.58950468    -0.24500
C3577       C  0.27444687  0.04714996  0.41417102    -0.11300
C3578       C  0.29528933  0.07196942  0.40476574     0.11300
C3579       C  0.28958232  0.08374800  0.38576332    -0.03100
C3580       C  0.26244940  0.07086399  0.37761707    -0.05800
C3581       C  0.24078885  0.04689380  0.38800978    -0.16600
C3582       C  0.24707637  0.03434220  0.40639743     0.02300
C3583       C  0.32276448  0.08575394  0.41579892     0.12300
C3584       C  0.31194282  0.11018062  0.37449420     0.62900
H3585       H  0.25791452  0.08006822  0.36331840     0.12300
C3586       C  0.22543128  0.00808415  0.41841360     0.55000
H3587       H  0.27979997  0.03842359  0.42832386     0.08100
C3588       C  0.32861059  0.10225208  0.43578517    -0.05700
C3589       C  0.35571153  0.11680371  0.44408074    -0.06500
C3590       C  0.37700695  0.11523574  0.43321039    -0.16100
C3591       C  0.37051930  0.09699818  0.41415718    -0.01600
C3592       C  0.34331239  0.08250737  0.40582567    -0.09200
C3593       C  0.30636942  0.10469774  0.44812100     0.65100
H3594       H  0.36063045  0.13013426  0.45898493     0.10500
C3595       C  0.39205216  0.09324795  0.40218796     0.63500
H3596       H  0.33789829  0.06899065  0.39099138     0.07900
F3597       F  0.20581585  0.01201836  0.42872507    -0.19600
F3598       F  0.23662434  0.00003680  0.43562515    -0.15800
F3599       F  0.21311241  0.98689625  0.40246854    -0.19300
F3600       F  0.33234771  0.10645592  0.36571382    -0.22700
F3601       F  0.32328072  0.13115960  0.39065906    -0.24100
F3602       F  0.30186828  0.11828221  0.35639887    -0.18100
F3603       F  0.40237897  0.08252149  0.41776092    -0.20600
F3604       F  0.41309201  0.11823079  0.39392362    -0.21800
F3605       F  0.38130150  0.07532422  0.38358760    -0.19000
F3606       F  0.31674606  0.12276754  0.46664292    -0.19100
F3607       F  0.28642054  0.07929673  0.45656884    -0.22900
F3608       F  0.29438492  0.11407971  0.43293066    -0.24500
C3609       C  0.46116927  0.30797893  0.06392068    -0.11300
C3610       C  0.46691929  0.33430490  0.06984354     0.11300
C3611       C  0.47128420  0.35322079  0.05218842    -0.03100
C3612       C  0.46803924  0.34449709  0.02902447    -0.05800
C3613       C  0.46120056  0.31769461  0.02268406    -0.16600
C3614       C  0.45833701  0.29918730  0.04063812     0.02300
C3615       C  0.46881991  0.34171899  0.09477129     0.12300
C3616       C  0.47960626  0.38264037  0.05779085     0.62900
H3617       H  0.47113813  0.35904321  0.01560390     0.05100
C3618       C  0.45251380  0.27043785  0.03572873     0.55000
H3619       H  0.45880938  0.29428397  0.07790965     0.08100
C3620       C  0.44515538  0.33359223  0.10848951    -0.05700
C3621       C  0.44857572  0.34088034  0.13208181    -0.06500
C3622       C  0.47474158  0.35613417  0.14224718    -0.16100
C3623       C  0.49848432  0.36489189  0.12826636    -0.01600
C3624       C  0.49496846  0.35708896  0.10476933    -0.09200
C3625       C  0.41643063  0.31712535  0.09829695     0.65100
H3626       H  0.43068353  0.33425981  0.14298041     0.10500
C3627       C  0.52737398  0.38152679  0.13811313     0.63500
H3628       H  0.51268482  0.36282179  0.09389778     0.07900
F3629       F  0.45087410  0.25650250  0.05587357    -0.19600
F3630       F  0.47345870  0.27199591  0.02234129    -0.15800
F3631       F  0.42769029  0.25521635  0.02429618    -0.19300
F3632       F  0.50515126  0.39613174  0.06823267    -0.22700
F3633       F  0.46062826  0.38283434  0.07262870    -0.24100
F3634       F  0.48121487  0.39723253  0.03810251    -0.18100
F3635       F  0.52999015  0.36767287  0.15658333    -0.20600
F3636       F  0.53253682  0.40688646  0.14544349    -0.21800
F3637       F  0.54720518  0.38603606  0.12183197    -0.19000
F3638       F  0.39637310  0.31200449  0.11454568    -0.19100
F3639       F  0.41149064  0.29212236  0.09023408    -0.22900
F3640       F  0.41396102  0.33145002  0.08014650    -0.24500
C3641       C  0.63623431  0.44731137  0.20327907    -0.11300
C3642       C  0.64388889  0.43494268  0.18625930     0.11300
C3643       C  0.62332186  0.41256895  0.17323117    -0.03100
C3644       C  0.59558413  0.40159106  0.17933439    -0.05800
C3645       C  0.58807158  0.41286477  0.19742661    -0.16600
C3646       C  0.60852880  0.43664027  0.20912424     0.02300
C3647       C  0.67327989  0.44327262  0.18539402     0.12300
C3648       C  0.63063132  0.40042215  0.15302653     0.62900
H3649       H  0.57961707  0.38338467  0.17063831     0.12300
C3650       C  0.60126898  0.44937994  0.22889279     0.55000
H3651       H  0.65232124  0.46439755  0.21301042     0.08100
C3652       C  0.69480522  0.47038138  0.18029353    -0.05700
C3653       C  0.72178996  0.47860571  0.18679762    -0.06500
C3654       C  0.72817384  0.46025476  0.19708254    -0.16100
C3655       C  0.70682987  0.43204784  0.19933285    -0.01600
C3656       C  0.67971489  0.42461742  0.19449429    -0.09200
C3657       C  0.69034159  0.49152291  0.16865679     0.65100
H3658       H  0.73789693  0.49987554  0.18422149     0.10500
C3659       C  0.71170869  0.40947922  0.20723986     0.63500
H3660       H  0.66297220  0.40426548  0.19910052     0.07900
F3661       F  0.62423886  0.47265722  0.23761324    -0.19600
F3662       F  0.58921409  0.43059611  0.24673084    -0.15800
F3663       F  0.58315370  0.45687189  0.22123354    -0.19300
F3664       F  0.64264948  0.38628703  0.16087949    -0.22700
F3665       F  0.64877965  0.42125812  0.13837516    -0.24100
F3666       F  0.60759757  0.38232462  0.14030162    -0.18100
F3667       F  0.68913099  0.38355651  0.20290907    -0.20600
F3668       F  0.71663299  0.41154089  0.23083896    -0.21800
F3669       F  0.73375946  0.41138483  0.19534917    -0.19000
F3670       F  0.70847257  0.50319078  0.15026530    -0.19100
F3671       F  0.69536179  0.51191893  0.18441565    -0.22900
F3672       F  0.66401427  0.48033901  0.16004079    -0.24500
C3673       C  0.42571885  0.27987898  0.31918110    -0.11300
C3674       C  0.43943406  0.26709488  0.32742099     0.11300
C3675       C  0.45987051  0.26679577  0.31359263    -0.03100
C3676       C  0.46651958  0.28021594  0.29215586    -0.05800
C3677       C  0.45363583  0.29389470  0.28419810    -0.16600
C3678       C  0.43265546  0.29358845  0.29765225     0.02300
C3679       C  0.43403332  0.25592934  0.35127946     0.12300
C3680       C  0.47509889  0.25290079  0.32161117     0.62900
H3681       H  0.48237209  0.28058881  0.28145777     0.12300
C3682       C  0.41859838  0.30858019  0.28977382     0.55000
H3683       H  0.41008702  0.27965765  0.33006186     0.08100
C3684       C  0.44871843  0.27300447  0.37031536    -0.05700
C3685       C  0.45046638  0.26061076  0.39068440    -0.06500
C3686       C  0.43801173  0.23205042  0.39228105    -0.16100
C3687       C  0.42055500  0.21493992  0.37440300    -0.01600
C3688       C  0.41845475  0.22730347  0.35409816    -0.09200
C3689       C  0.46396528  0.30412341  0.36852102     0.65100
H3690       H  0.46354984  0.27321204  0.40475070     0.10500
C3691       C  0.40579848  0.18389998  0.37631706     0.63500
H3692       H  0.40686549  0.21471811  0.33943595     0.07900
F3693       F  0.43805101  0.33577670  0.28515506    -0.19600
F3694       F  0.40083994  0.30801478  0.30648920    -0.15800
F3695       F  0.40357752  0.29633543  0.26992470    -0.19300
F3696       F  0.45689060  0.22492207  0.32363590    -0.22700
F3697       F  0.48742669  0.26337026  0.34281815    -0.24100
F3698       F  0.49549512  0.25692349  0.30614001    -0.18100
F3699       F  0.38917783  0.17096905  0.35731761    -0.20600
F3700       F  0.38944123  0.17532957  0.39596269    -0.21800
F3701       F  0.42477242  0.17582042  0.37784732    -0.19000
F3702       F  0.47697336  0.31673817  0.38906797    -0.19100
F3703       F  0.44556756  0.31220611  0.36335492    -0.22900
F3704       F  0.48370454  0.31320957  0.35127041    -0.24500
C3705       C  0.34971874  0.40511297  0.25154663    -0.11300
C3706       C  0.37801098  0.41545042  0.24986146     0.11300
C3707       C  0.39682758  0.44352940  0.25465243    -0.03100
C3708       C  0.38665279  0.46035669  0.26113025    -0.05800
C3709       C  0.35825721  0.45045420  0.26273871    -0.16600
C3710       C  0.33933191  0.42200778  0.25793406     0.02300
C3711       C  0.38796116  0.39713681  0.24208777     0.12300
C3712       C  0.42771741  0.45586584  0.25249164     0.62900
H3713       H  0.40121411  0.48187849  0.26445798     0.12300
C3714       C  0.30837893  0.40915059  0.25947574     0.55000
H3715       H  0.33579789  0.38362938  0.24746470     0.08100
C3716       C  0.39273493  0.38103298  0.25781527    -0.05700
C3717       C  0.40892599  0.37029712  0.25048558    -0.06500
C3718       C  0.41990087  0.37495796  0.22797552    -0.16100
C3719       C  0.41201105  0.38790970  0.21148373    -0.01600
C3720       C  0.39603726  0.39877900  0.21886791    -0.09200
C3721       C  0.38122826  0.37577187  0.28226549     0.65100
H3722       H  0.41428298  0.35940646  0.26260509     0.10500
C3723       C  0.42045627  0.39021973  0.18620599     0.63500
H3724       H  0.39124994  0.41027026  0.20688677     0.07900
F3725       F  0.30129424  0.41369820  0.28125195    -0.19600
F3726       F  0.29430908  0.38101801  0.25589922    -0.15800
F3727       F  0.29981273  0.42036723  0.24274714    -0.19300
F3728       F  0.43453745  0.45480782  0.22966055    -0.22700
F3729       F  0.43576926  0.44139162  0.26609950    -0.24100
F3730       F  0.44249960  0.48306441  0.25949290    -0.18100
F3731       F  0.40770913  0.40030012  0.17262390    -0.20600
F3732       F  0.41314136  0.36453999  0.17782724    -0.21800
F3733       F  0.44854743  0.40775652  0.18397231    -0.19000
F3734       F  0.38791502  0.35930766  0.29464298    -0.19100
F3735       F  0.35288042  0.36257169  0.28137430    -0.22900
F3736       F  0.39149907  0.40034018  0.29404147    -0.24500
C3737       C  0.73603634  0.64896099  0.43268271    -0.11300
C3738       C  0.71995132  0.65155276  0.41584180     0.11300
C3739       C  0.69488948  0.62823442  0.40878131    -0.03100
C3740       C  0.68666598  0.60279884  0.41913718    -0.05800
C3741       C  0.70286299  0.59991441  0.43597283    -0.16600
C3742       C  0.72784531  0.62369686  0.44329338     0.02300
C3743       C  0.73108357  0.67892804  0.40515411     0.12300
C3744       C  0.67725930  0.63006984  0.39003352     0.62900
H3745       H  0.66786904  0.58469276  0.41338057     0.12300
C3746       C  0.74602887  0.62302300  0.46218521     0.55000
H3747       H  0.75552800  0.66709155  0.43718790     0.08100
C3748       C  0.73210286  0.70104319  0.41731451    -0.05700
C3749       C  0.74656486  0.72738217  0.40736146    -0.06500
C3750       C  0.76031029  0.73204290  0.38611208    -0.16100
C3751       C  0.75776920  0.70961775  0.37329797    -0.01600
C3752       C  0.74341384  0.68336602  0.38327134    -0.09200
C3753       C  0.71893768  0.69705454  0.44105500     0.65100
H3754       H  0.74878593  0.74484772  0.41682003     0.10500
C3755       C  0.77037288  0.71332169  0.34932493     0.63500
H3756       H  0.74281225  0.66626926  0.37449113     0.07900
F3757       F  0.76616238  0.64919620  0.46912679    -0.19600
F3758       F  0.75911727  0.60991250  0.45412028    -0.15800
F3759       F  0.73032330  0.60947348  0.48148440    -0.19300
F3760       F  0.69086652  0.63623186  0.36899422    -0.22700
F3761       F  0.67180135  0.65035104  0.39553865    -0.24100
F3762       F  0.65237761  0.60558129  0.38750477    -0.18100
F3763       F  0.79855153  0.72545693  0.35106483    -0.20600
F3764       F  0.76450252  0.72967433  0.33589285    -0.21800
F3765       F  0.76005705  0.68840727  0.33802407    -0.19000
F3766       F  0.71968523  0.72050013  0.44854923    -0.19100
F3767       F  0.73273957  0.69078820  0.45714094    -0.22900
F3768       F  0.69173358  0.67588168  0.44025332    -0.24500
C3769       C  0.64857971  0.53041820  0.55741279    -0.11300
C3770       C  0.65456983  0.51383204  0.57094899     0.11300
C3771       C  0.66793393  0.50128449  0.56067117    -0.03100
C3772       C  0.67475955  0.50578898  0.53697279    -0.05800
C3773       C  0.66837841  0.52204526  0.52333553    -0.16600
C3774       C  0.65575499  0.53526253  0.53380343     0.02300
C3775       C  0.64590655  0.50949648  0.59571082     0.12300
C3776       C  0.67427245  0.48257792  0.57441270     0.62900
H3777       H  0.68418096  0.49567293  0.52864647     0.12300
C3778       C  0.65070307  0.55512658  0.52043514     0.55000
H3779       H  0.63796367  0.53943196  0.56553717     0.08100
C3780       C  0.65967096  0.53017870  0.61271773    -0.05700
C3781       C  0.64968024  0.52467831  0.63565209    -0.06500
C3782       C  0.62710771  0.49894439  0.64230601    -0.16100
C3783       C  0.61421333  0.47788102  0.62526905    -0.01600
C3784       C  0.62323377  0.48401250  0.60211685    -0.09200
C3785       C  0.68530288  0.55760207  0.60682483     0.65100
H3786       H  0.65978039  0.54050333  0.64871322     0.10500
C3787       C  0.59187347  0.44869453  0.63134348     0.63500
H3788       H  0.61282245  0.46869888  0.58871411     0.07900
F3789       F  0.67451486  0.57419795  0.50903583    -0.19600
F3790       F  0.64303090  0.56934015  0.53497085    -0.15800
F3791       F  0.62990572  0.54101605  0.50447074    -0.19300
F3792       F  0.65011615  0.45831648  0.57955041    -0.22700
F3793       F  0.68757279  0.49524522  0.59480893    -0.24100
F3794       F  0.69104451  0.47612714  0.56209680    -0.18100
F3795       F  0.56826908  0.44818540  0.63781221    -0.20600
F3796       F  0.60060672  0.43902512  0.64925825    -0.21800
F3797       F  0.58542216  0.43092026  0.61278745    -0.19000
F3798       F  0.69666477  0.57395593  0.62626372    -0.19100
F3799       F  0.67902310  0.57186283  0.59125333    -0.22900
F3800       F  0.70491177  0.55321680  0.59714355    -0.24500
C3801       C  0.75968337  0.52592261  0.30883813    -0.11300
C3802       C  0.78211750  0.54527793  0.32211540     0.11300
C3803       C  0.80917636  0.55712885  0.31328825    -0.03100
C3804       C  0.81290924  0.54782224  0.29185353    -0.05800
C3805       C  0.79060861  0.52674325  0.27965995    -0.16600
C3806       C  0.76345503  0.51646680  0.28755301     0.02300
C3807       C  0.77607898  0.54819435  0.34644146     0.12300
C3808       C  0.83472558  0.57895812  0.32577552     0.62900
H3809       H  0.83354598  0.55601926  0.28523326     0.12300
C3810       C  0.73862243  0.49522695  0.27383253     0.55000
H3811       H  0.73917496  0.51698995  0.31599377     0.08100
C3812       C  0.76310271  0.56268591  0.35268622    -0.05700
C3813       C  0.75088090  0.55802852  0.37472595    -0.06500
C3814       C  0.75150024  0.53940076  0.39012169    -0.16100
C3815       C  0.76698752  0.52724688  0.38477324    -0.01600
C3816       C  0.77925255  0.53198048  0.36283973    -0.09200
C3817       C  0.76157633  0.58219718  0.33583565     0.65100
H3818       H  0.73895222  0.56714372  0.37934991     0.10500
C3819       C  0.76917718  0.50821694  0.40179842     0.63500
H3820       H  0.78956211  0.52135659  0.35766640     0.07900
F3821       F  0.71441457  0.49202606  0.28243121    -0.19600
F3822       F  0.73664641  0.47005941  0.27489543    -0.15800
F3823       F  0.74114480  0.50332491  0.25091340    -0.19300
F3824       F  0.85227589  0.56939284  0.32929468    -0.22700
F3825       F  0.82918743  0.58630708  0.34700713    -0.24100
F3826       F  0.84793310  0.60226525  0.31211478    -0.18100
F3827       F  0.74373773  0.48454707  0.40480275    -0.20600
F3828       F  0.77837951  0.52133741  0.42294398    -0.21800
F3829       F  0.78739891  0.50073269  0.39415685    -0.19000
F3830       F  0.75029258  0.59607607  0.34605543    -0.19100
F3831       F  0.74556501  0.56782847  0.31697512    -0.22900
F3832       F  0.78776602  0.60142315  0.32823321    -0.24500
C3833       C  0.61135633  0.48010868  0.33513301    -0.11300
C3834       C  0.58375176  0.47183243  0.33852884     0.11300
C3835       C  0.57508067  0.47611262  0.36023719    -0.03100
C3836       C  0.59388090  0.48599893  0.37872527    -0.05800
C3837       C  0.62084077  0.49144142  0.37607448    -0.16600
C3838       C  0.63032891  0.49025436  0.35348772     0.02300
C3839       C  0.56404151  0.45540250  0.31993164     0.12300
C3840       C  0.54587122  0.46944779  0.36392720     0.62900
H3841       H  0.58691446  0.48760413  0.39580201     0.12300
C3842       C  0.66005090  0.49914404  0.34849825     0.55000
H3843       H  0.61758746  0.47707689  0.31817810     0.08100
C3844       C  0.56247339  0.46670396  0.29857662    -0.05700
C3845       C  0.54814952  0.44878061  0.28008604    -0.06500
C3846       C  0.53532738  0.42016446  0.28241204    -0.16100
C3847       C  0.53473600  0.40887858  0.30450507    -0.01600
C3848       C  0.54955981  0.42682551  0.32274032    -0.09200
C3849       C  0.57577200  0.49724886  0.29416973     0.65100
H3850       H  0.54813739  0.45736131  0.26334392     0.10500
C3851       C  0.51908009  0.37810230  0.30903953     0.63500
H3852       H  0.55115182  0.41856592  0.33915402     0.07900
F3853       F  0.67761244  0.52383903  0.35945829    -0.19600
F3854       F  0.66579240  0.50288747  0.32498057    -0.15800
F3855       F  0.66524508  0.47934111  0.35611118    -0.19300
F3856       F  0.52778045  0.44136415  0.36284396    -0.22700
F3857       F  0.53916799  0.48200443  0.34693248    -0.24100
F3858       F  0.54270533  0.47862771  0.38526626    -0.18100
F3859       F  0.53351350  0.36674415  0.30018221    -0.20600
F3860       F  0.49339784  0.36572670  0.29888484    -0.21800
F3861       F  0.51523380  0.37237204  0.33253580    -0.19000
F3862       F  0.55586385  0.50248150  0.28686274    -0.19100
F3863       F  0.59537082  0.50515859  0.27690766    -0.22900
F3864       F  0.58821134  0.51313323  0.31359560    -0.24500
C3865       C  0.57545689  0.38575774  0.48772922    -0.11300
C3866       C  0.56213058  0.36632913  0.47002806     0.11300
C3867       C  0.56611007  0.37481877  0.44653610    -0.03100
C3868       C  0.58423948  0.40261388  0.44152389    -0.05800
C3869       C  0.59859792  0.42185868  0.45903788    -0.16600
C3870       C  0.59407345  0.41366049  0.48257638     0.02300
C3871       C  0.54530297  0.33684205  0.47598245     0.12300
C3872       C  0.55212831  0.35450838  0.42673127     0.62900
H3873       H  0.58820639  0.40951028  0.42367129     0.12300
C3874       C  0.60966833  0.43398837  0.50193053     0.55000
H3875       H  0.57182867  0.37869436  0.50552149     0.08100
C3876       C  0.55725281  0.32056290  0.47751066    -0.05700
C3877       C  0.54005463  0.29194739  0.47536874    -0.06500
C3878       C  0.51156622  0.27952838  0.47226918    -0.16100
C3879       C  0.49935258  0.29566872  0.47412828    -0.01600
C3880       C  0.51666675  0.32433572  0.47606634    -0.09200
C3881       C  0.58808208  0.33354522  0.48036528     0.65100
H3882       H  0.54892168  0.27916582  0.47454344     0.10500
C3883       C  0.46847089  0.28303963  0.47244855     0.63500
H3884       H  0.50813736  0.33742036  0.47564726     0.07900
F3885       F  0.60379275  0.42126407  0.52336689    -0.19600
F3886       F  0.60254407  0.45371233  0.50259215    -0.15800
F3887       F  0.63768198  0.44667524  0.49819735    -0.19300
F3888       F  0.52391168  0.34177740  0.42875291    -0.22700
F3889       F  0.55933352  0.33484328  0.42717789    -0.24100
F3890       F  0.55962796  0.36727414  0.40529829    -0.18100
F3891       F  0.46123822  0.30268773  0.47389333    -0.20600
F3892       F  0.45565068  0.26467141  0.49045259    -0.21800
F3893       F  0.45890944  0.26946627  0.45153705    -0.19000
F3894       F  0.59541168  0.31395892  0.48144830    -0.19100
F3895       F  0.59640243  0.34856362  0.50071410    -0.22900
F3896       F  0.60196350  0.35081537  0.46194381    -0.24500
C3897       C  0.84321337  0.33723336  0.55159481    -0.11300
C3898       C  0.81876365  0.32307316  0.56434530     0.11300
C3899       C  0.79369222  0.30481074  0.55311351    -0.03100
C3900       C  0.79399014  0.30143963  0.52904922    -0.05800
C3901       C  0.81828929  0.31633480  0.51602550    -0.16600
C3902       C  0.84355805  0.33418514  0.52747532     0.02300
C3903       C  0.81988231  0.32956789  0.58921205     0.12300
C3904       C  0.76663385  0.28983522  0.56631901     0.62900
H3905       H  0.77489701  0.28804024  0.52003790     0.12300
C3906       C  0.87082535  0.34987762  0.51459666     0.55000
H3907       H  0.86198929  0.35134889  0.56072122     0.08100
C3908       C  0.82770652  0.31710786  0.60611460    -0.05700
C3909       C  0.82815735  0.32445055  0.62940480    -0.06500
C3910       C  0.82201631  0.34439998  0.63601214    -0.16100
C3911       C  0.81500529  0.35747195  0.61888092    -0.01600
C3912       C  0.81402017  0.34965987  0.59563801    -0.09200
C3913       C  0.83601254  0.29661580  0.59952839     0.65100
H3914       H  0.83381558  0.31495831  0.64270761     0.10500
C3915       C  0.80804161  0.37906301  0.62495445     0.63500
H3916       H  0.80876169  0.35926812  0.58213023     0.07900
F3917       F  0.89293266  0.36177643  0.52967798    -0.19600
F3918       F  0.87181894  0.37068822  0.50157913    -0.15800
F3919       F  0.87390325  0.33222695  0.50020334    -0.19300
F3920       F  0.76051757  0.30863481  0.57498770    -0.22700
F3921       F  0.76842285  0.27515002  0.58451048    -0.24100
F3922       F  0.74508249  0.27156387  0.55228297    -0.18100
F3923       F  0.83120640  0.40241817  0.63322387    -0.20600
F3924       F  0.78759027  0.36896683  0.64164386    -0.21800
F3925       F  0.79874228  0.38653583  0.60587210    -0.19000
F3926       F  0.84190642  0.28624171  0.61882867    -0.19100
F3927       F  0.85923311  0.30931779  0.58568179    -0.22900
F3928       F  0.81502222  0.27477868  0.58751931    -0.24500
C3929       C  0.87492119  0.43257390  0.29610733    -0.11300
C3930       C  0.86030575  0.42818681  0.31677382     0.11300
C3931       C  0.84483332  0.44077002  0.32025891    -0.03100
C3932       C  0.84200862  0.45490020  0.30170820    -0.05800
C3933       C  0.85350422  0.45622660  0.27971500    -0.16600
C3934       C  0.87198862  0.44658996  0.27732573     0.02300
C3935       C  0.85858868  0.40773971  0.33348285     0.12300
C3936       C  0.83014639  0.43799519  0.34309889     0.62900
H3937       H  0.82923207  0.46359027  0.30396916     0.12300
C3938       C  0.88797042  0.45001806  0.25517304     0.55000
H3939       H  0.88728630  0.42334921  0.29434949     0.08100
C3940       C  0.83791147  0.37968897  0.33130217    -0.05700
C3941       C  0.83234143  0.36241460  0.35038132    -0.06500
C3942       C  0.84655667  0.37238802  0.37141751    -0.16100
C3943       C  0.87003178  0.39951859  0.37228264    -0.01600
C3944       C  0.87547078  0.41689929  0.35310628    -0.09200
C3945       C  0.82086985  0.36841501  0.30935380     0.65100
H3946       H  0.81539422  0.34127257  0.34954849     0.10500
C3947       C  0.88886185  0.41050232  0.39324256     0.63500
H3948       H  0.89187998  0.43827812  0.35379686     0.07900
F3949       F  0.90635790  0.44130085  0.25785459    -0.19600
F3950       F  0.90294372  0.47746836  0.24899406    -0.15800
F3951       F  0.87016706  0.43472644  0.23748307    -0.19300
F3952       F  0.84904873  0.44855947  0.36093773    -0.22700
F3953       F  0.81108089  0.41064705  0.34755942    -0.24100
F3954       F  0.81638782  0.45205228  0.34284770    -0.18100
F3955       F  0.91042528  0.43724178  0.38989547    -0.20600
F3956       F  0.89993396  0.39435980  0.39725947    -0.21800
F3957       F  0.87452127  0.41030557  0.41264190    -0.19000
F3958       F  0.80161926  0.34057545  0.31107979    -0.19100
F3959       F  0.83793758  0.37224917  0.29081770    -0.22900
F3960       F  0.80696407  0.38179714  0.30496007    -0.24500
C3961       C  0.66110887  0.26339865  0.46212740    -0.11300
C3962       C  0.64502497  0.23457674  0.46271550     0.11300
C3963       C  0.65820363  0.21927936  0.46211248    -0.03100
C3964       C  0.68691512  0.23337844  0.45916580    -0.05800
C3965       C  0.70275378  0.26207531  0.45696724    -0.16600
C3966       C  0.68990656  0.27751226  0.45976830     0.02300
C3967       C  0.61475141  0.22148712  0.46018787     0.12300
C3968       C  0.64315932  0.18819537  0.46390465     0.62900
H3969       H  0.69687677  0.22166551  0.45742493     0.12300
C3970       C  0.70638409  0.30872911  0.46014360     0.55000
H3971       H  0.65079185  0.27483562  0.46243172     0.08100
C3972       C  0.59728845  0.21903330  0.47875956    -0.05700
C3973       C  0.56905325  0.20793466  0.47431553    -0.06500
C3974       C  0.55818910  0.19956305  0.45194757    -0.16100
C3975       C  0.57563457  0.20138327  0.43354790    -0.01600
C3976       C  0.60364814  0.21219676  0.43806805    -0.09200
C3977       C  0.60859211  0.22814982  0.50302575     0.65100
H3978       H  0.55547411  0.20677672  0.48805230     0.10500
C3979       C  0.56469000  0.19212172  0.40914063     0.63500
H3980       H  0.61741314  0.21420293  0.42416027     0.07900
F3981       F  0.72944483  0.31809756  0.47389322    -0.19600
F3982       F  0.69111469  0.31914845  0.46913477    -0.15800
F3983       F  0.71440712  0.31880590  0.43790965    -0.19300
F3984       F  0.64700872  0.17761919  0.44363390    -0.22700
F3985       F  0.61523949  0.17600967  0.46771241    -0.24100
F3986       F  0.65394491  0.18117450  0.48216891    -0.18100
F3987       F  0.55570409  0.20850079  0.40014652    -0.20600
F3988       F  0.54304154  0.16519583  0.40967557    -0.21800
F3989       F  0.58455326  0.19356806  0.39432294    -0.19000
F3990       F  0.58808044  0.22291495  0.51880894    -0.19100
F3991       F  0.62765437  0.25606035  0.50326323    -0.22900
F3992       F  0.62116008  0.21421690  0.51012427    -0.24500
C3993       C  0.78364997  0.42541033  0.44519613    -0.11300
C3994       C  0.77060943  0.42107579  0.46677069     0.11300
C3995       C  0.76929209  0.40097162  0.48203952    -0.03100
C3996       C  0.78067588  0.38538185  0.47476111    -0.05800
C3997       C  0.79265693  0.38904442  0.45276524    -0.16600
C3998       C  0.79475049  0.40971366  0.43789421     0.02300
C3999       C  0.75541081  0.43536146  0.47093485     0.12300
C4000       C  0.75547757  0.39559522  0.50561657     0.62900
H4001       H  0.77896665  0.36913669  0.48567313     0.12300
C4002       C  0.80802666  0.41463313  0.41415550     0.55000
H4003       H  0.78381769  0.44037041  0.43356381     0.08100
C4004       C  0.76896660  0.46404334  0.47489099    -0.05700
C4005       C  0.75373172  0.47701609  0.47310233    -0.06500
C4006       C  0.72555674  0.46214180  0.46761084    -0.16100
C4007       C  0.71151135  0.43301375  0.46660735    -0.01600
C4008       C  0.72694969  0.42031614  0.46721394    -0.09200
C4009       C  0.79956338  0.48102370  0.47997699     0.65100
H4010       H  0.76426902  0.49919220  0.47423875     0.10500
C4011       C  0.68057573  0.41485707  0.46379611     0.63500
H4012       H  0.71681493  0.39843461  0.46389449     0.07900
F4013       F  0.80975351  0.43702035  0.40314975    -0.19600
F4014       F  0.79291381  0.39177296  0.40027674    -0.15800
F4015       F  0.83434947  0.41969961  0.41648668    -0.19300
F4016       F  0.72782627  0.38602423  0.50307631    -0.22700
F4017       F  0.76761418  0.41961892  0.51839287    -0.24100
F4018       F  0.75774504  0.37614264  0.51803946    -0.18100
F4019       F  0.67089131  0.38993251  0.47486504    -0.20600
F4020       F  0.67413691  0.40995711  0.44051133    -0.21800
F4021       F  0.66717494  0.42687695  0.47352782    -0.19000
F4022       F  0.80790550  0.50780072  0.48589277    -0.19100
F4023       F  0.81441948  0.48180772  0.46071716    -0.22900
F4024       F  0.80570955  0.46957719  0.49828283    -0.24500
C4025       C  0.89864207  0.28410166  0.40647273    -0.11300
C4026       C  0.89531349  0.26132167  0.41865142     0.11300
C4027       C  0.87941355  0.25270858  0.43921773    -0.03100
C4028       C  0.86494544  0.26552063  0.44558875    -0.05800
C4029       C  0.86649930  0.28697405  0.43242269    -0.16600
C4030       C  0.88443890  0.29720744  0.41298926     0.02300
C4031       C  0.90682953  0.24547370  0.40847316     0.12300
C4032       C  0.87735376  0.22974902  0.45407121     0.62900
H4033       H  0.85162945  0.25836797  0.46066372     0.12300
C4034       C  0.88762368  0.32090746  0.39854491     0.55000
H4035       H  0.91157519  0.29073018  0.39116585     0.08100
C4036       C  0.89258499  0.22551467  0.39103660    -0.05700
C4037       C  0.90365630  0.21003047  0.38297584    -0.06500
C4038       C  0.92812511  0.21344015  0.39200534    -0.16100
C4039       C  0.94249598  0.23368007  0.40945037    -0.01600
C4040       C  0.93175773  0.24976726  0.41698210    -0.09200
C4041       C  0.86542128  0.22013855  0.38137547     0.65100
H4042       H  0.89288556  0.19461584  0.36970675     0.10500
C4043       C  0.96806523  0.23737309  0.42112141     0.63500
H4044       H  0.94230110  0.26536034  0.43016406     0.07900
F4045       F  0.86223749  0.31485613  0.39049856    -0.19600
F4046       F  0.90457287  0.32619514  0.37954422    -0.15800
F4047       F  0.89909744  0.34446423  0.41192886    -0.19300
F4048       F  0.90318310  0.23708620  0.46194624    -0.22700
F4049       F  0.86664537  0.20582399  0.44125626    -0.24100
F4050       F  0.86060433  0.22444021  0.47321861    -0.18100
F4051       F  0.97676105  0.25605211  0.43921676    -0.20600
F4052       F  0.98936593  0.24696192  0.40528113    -0.21800
F4053       F  0.96251908  0.21253500  0.43011111    -0.19000
F4054       F  0.85465497  0.19933813  0.36499140    -0.19100
F4055       F  0.86916098  0.24361469  0.37091440    -0.22900
F4056       F  0.84637388  0.21247407  0.39906680    -0.24500
C4057       C  0.64591724  0.17496583  0.09675270    -0.11300
C4058       C  0.63402377  0.15024517  0.08446148     0.11300
C4059       C  0.61692010  0.12499043  0.09604679    -0.03100
C4060       C  0.61252478  0.12545752  0.12005863    -0.05800
C4061       C  0.62470356  0.15031484  0.13234226    -0.16600
C4062       C  0.64101995  0.17550263  0.12046284     0.02300
C4063       C  0.63935559  0.15196592  0.05924148     0.12300
C4064       C  0.60364407  0.09785308  0.08309349     0.62900
H4065       H  0.60008513  0.10645427  0.12951395     0.12300
C4066       C  0.65242395  0.20289145  0.13264328     0.55000
H4067       H  0.65896019  0.19398951  0.08747489     0.08100
C4068       C  0.62553320  0.15981220  0.04372483    -0.05700
C4069       C  0.63254135  0.16255846  0.02014250    -0.06500
C4070       C  0.65319588  0.15830821  0.01184984    -0.16100
C4071       C  0.66698418  0.15034744  0.02736899    -0.01600
C4072       C  0.65986000  0.14746695  0.05101750    -0.09200
C4073       C  0.60387510  0.16578659  0.05211108     0.65100
H4074       H  0.62227847  0.16864755  0.00794782     0.10500
C4075       C  0.68843671  0.14415736  0.01892587     0.63500
H4076       H  0.67041285  0.14192447  0.06337337     0.07900
F4077       F  0.63180592  0.20256281  0.14552979    -0.19600
F4078       F  0.66228380  0.22448355  0.11709699    -0.15800
F4079       F  0.67372486  0.20756321  0.14706519    -0.19300
F4080       F  0.62376137  0.09361732  0.07442215    -0.22700
F4081       F  0.58808045  0.09815653  0.06490953    -0.24100
F4082       F  0.58655135  0.07592947  0.09733329    -0.18100
F4083       F  0.69691600  0.13374309  0.03645577    -0.20600
F4084       F  0.71126929  0.16793178  0.01078349    -0.21800
F4085       F  0.67761252  0.12489196  0.00128692    -0.19000
F4086       F  0.59068393  0.16967402  0.03381831    -0.19100
F4087       F  0.61606677  0.18936331  0.06548853    -0.22900
F4088       F  0.58415611  0.14411531  0.06519369    -0.24500
C4089       C  0.53503148  0.21604669  0.16988054    -0.11300
C4090       C  0.53215182  0.23002712  0.18867201     0.11300
C4091       C  0.54359568  0.23025931  0.21043193    -0.03100
C4092       C  0.55844490  0.21718379  0.21240083    -0.05800
C4093       C  0.56233173  0.20382285  0.19357414    -0.16600
C4094       C  0.54992005  0.20266327  0.17194481     0.02300
C4095       C  0.51865895  0.24595116  0.18530182     0.12300
C4096       C  0.54036999  0.24442460  0.23158837     0.62900
H4097       H  0.56700551  0.21709651  0.22909453     0.12300
C4098       C  0.55272094  0.18804680  0.15110133     0.55000
H4099       H  0.52577600  0.21603954  0.15352105     0.08100
C4100       C  0.53417511  0.27380255  0.17840032    -0.05700
C4101       C  0.52326610  0.29047856  0.18257150    -0.06500
C4102       C  0.49806230  0.28030639  0.19410663    -0.16100
C4103       C  0.48148344  0.25190882  0.19910966    -0.01600
C4104       C  0.49184392  0.23488886  0.19385124    -0.09200
C4105       C  0.56296379  0.28626140  0.16838954     0.65100
H4106       H  0.53546863  0.31225928  0.17876467     0.10500
C4107       C  0.45442365  0.24025380  0.21204241     0.63500
H4108       H  0.48039779  0.21342800  0.19879455     0.07900
F4109       F  0.54131331  0.19183307  0.13138383    -0.19600
F4110       F  0.53934000  0.16013465  0.15538295    -0.15800
F4111       F  0.58020397  0.19810046  0.14664627    -0.19300
F4112       F  0.51295195  0.23158203  0.23775608    -0.22700
F4113       F  0.55020124  0.27175414  0.22681460    -0.24100
F4114       F  0.55468408  0.24350854  0.25055776    -0.18100
F4115       F  0.44172757  0.21217908  0.21537224    -0.20600
F4116       F  0.43671079  0.24508562  0.19957668    -0.21800
F4117       F  0.45901573  0.25262748  0.23357404    -0.19000
F4118       F  0.57449988  0.31377576  0.16299479    -0.19100
F4119       F  0.56194922  0.27247249  0.14833053    -0.22900
F4120       F  0.57998290  0.28419382  0.18418807    -0.24500
C4121       C  0.75684348  0.22553561  0.34104286    -0.11300
C4122       C  0.72816630  0.21222817  0.33894199     0.11300
C4123       C  0.71190782  0.20967109  0.35849909    -0.03100
C4124       C  0.72527394  0.22332692  0.37898745    -0.05800
C4125       C  0.75397223  0.23974654  0.37999350    -0.16600
C4126       C  0.77018038  0.23999396  0.36134769     0.02300
C4127       C  0.71610792  0.20606950  0.31544662     0.12300
C4128       C  0.68073056  0.19458242  0.35710664     0.62900
H4129       H  0.71341681  0.22343489  0.39366707     0.12300
C4130       C  0.80130616  0.25669573  0.36265503     0.55000
H4131       H  0.76876662  0.22675548  0.32593739     0.08100
C4132       C  0.71576036  0.22679570  0.30231994    -0.05700
C4133       C  0.70028443  0.21923792  0.28191461    -0.06500
C4134       C  0.68568574  0.19194712  0.27404985    -0.16100
C4135       C  0.68758613  0.17149094  0.28634605    -0.01600
C4136       C  0.70285899  0.17901832  0.30708831    -0.09200
C4137       C  0.73138082  0.25675026  0.30998929     0.65100
H4138       H  0.69923690  0.23470949  0.27192312     0.10500
C4139       C  0.67280190  0.14182523  0.27820715     0.63500
H4140       H  0.70390171  0.16373636  0.31735935     0.07900
F4141       F  0.81037676  0.28432815  0.36444354    -0.19600
F4142       F  0.81329732  0.25297400  0.34321293    -0.15800
F4143       F  0.80989210  0.24878706  0.38190682    -0.19300
F4144       F  0.67042353  0.16780753  0.34997208    -0.22700
F4145       F  0.67291235  0.20755931  0.34146845    -0.24100
F4146       F  0.66897869  0.19381031  0.37835411    -0.18100
F4147       F  0.67564679  0.12505802  0.29377961    -0.20600
F4148       F  0.68360125  0.14018487  0.25719628    -0.21800
F4149       F  0.64503090  0.13188833  0.27568586    -0.19000
F4150       F  0.72726186  0.27323001  0.29507453    -0.19100
F4151       F  0.75924887  0.26657227  0.31045360    -0.22900
F4152       F  0.72288700  0.25924365  0.33184214    -0.24500
C4153       C  0.50850243  0.13176443  0.28773648    -0.11300
C4154       C  0.52064851  0.13916265  0.30972924     0.11300
C4155       C  0.54822685  0.14614756  0.31257811    -0.03100
C4156       C  0.56311373  0.14667237  0.29296397    -0.05800
C4157       C  0.55195468  0.14191789  0.27054511    -0.16600
C4158       C  0.52391411  0.13385532  0.26781882     0.02300
C4159       C  0.50528832  0.14231817  0.32915790     0.12300
C4160       C  0.56246157  0.15460790  0.33601566     0.62900
H4161       H  0.58437388  0.15248807  0.29484226     0.12300
C4162       C  0.51075065  0.12945867  0.24409010     0.55000
H4163       H  0.48722784  0.12597705  0.28616723     0.08100
C4164       C  0.50341032  0.16597904  0.33122797    -0.05700
C4165       C  0.49407962  0.17070133  0.35226804    -0.06500
C4166       C  0.48707984  0.15295208  0.37144630    -0.16100
C4167       C  0.48657032  0.12784026  0.36844240    -0.01600
C4168       C  0.49536455  0.12293602  0.34706839    -0.09200
C4169       C  0.51206002  0.18664751  0.31157226     0.65100
H4170       H  0.49326396  0.18912642  0.35413210     0.10500
C4171       C  0.47787821  0.10654607  0.38755869     0.63500
H4172       H  0.49619960  0.10458762  0.34456652     0.07900
F4173       F  0.52542574  0.15306645  0.23095679    -0.19600
F4174       F  0.48389042  0.12336550  0.24557116    -0.15800
F4175       F  0.51041426  0.10781505  0.23294215    -0.19300
F4176       F  0.54950360  0.13300223  0.35144799    -0.22700
F4177       F  0.56164931  0.17682479  0.34459485    -0.24100
F4178       F  0.58976892  0.16213420  0.33457417    -0.18100
F4179       F  0.47901669  0.08396576  0.38044879    -0.20600
F4180       F  0.45109793  0.09724508  0.39408075    -0.21800
F4181       F  0.49500476  0.11780066  0.40649573    -0.19000
F4182       F  0.51031611  0.20913327  0.31781765    -0.19100
F4183       F  0.49508578  0.17430975  0.29269574    -0.22900
F4184       F  0.53896190  0.19614764  0.30516641    -0.24500
C4185       C  0.76741460  0.34637312  0.20960009    -0.11300
C4186       C  0.75999886  0.33939861  0.18637096     0.11300
C4187       C  0.76887908  0.36041136  0.16953675    -0.03100
C4188       C  0.78398370  0.38805380  0.17689815    -0.05800
C4189       C  0.78939687  0.39493306  0.20048090    -0.16600
C4190       C  0.78176683  0.37376922  0.21709600     0.02300
C4191       C  0.73959466  0.31001569  0.18155052     0.12300
C4192       C  0.76198507  0.35361630  0.14409463     0.62900
H4193       H  0.79017309  0.40443131  0.16444845     0.12300
C4194       C  0.78760902  0.37963830  0.24284728     0.55000
H4195       H  0.76015968  0.32992698  0.22218194     0.08100
C4196       C  0.74552734  0.28911494  0.18522090    -0.05700
C4197       C  0.72366059  0.26212498  0.18945827    -0.06500
C4198       C  0.69614179  0.25534577  0.18961200    -0.16100
C4199       C  0.69022932  0.27582355  0.18313053    -0.01600
C4200       C  0.71218209  0.30286008  0.17967890    -0.09200
C4201       C  0.77461667  0.29493242  0.18679490     0.65100
H4202       H  0.72832411  0.24657267  0.19404206     0.10500
C4203       C  0.66116531  0.27024029  0.18113719     0.63500
H4204       H  0.70795934  0.31918298  0.17758917     0.07900
F4205       F  0.78420958  0.35697737  0.25467960    -0.19600
F4206       F  0.76975352  0.38657918  0.25236554    -0.15800
F4207       F  0.81438515  0.40090767  0.24621679    -0.19300
F4208       F  0.73402902  0.34158820  0.14073840    -0.22700
F4209       F  0.76989199  0.33562391  0.13685979    -0.24100
F4210       F  0.77535702  0.37688897  0.13035423    -0.18100
F4211       F  0.66062471  0.29063369  0.16861198    -0.20600
F4212       F  0.65056164  0.26923742  0.20294384    -0.21800
F4213       F  0.64449097  0.24571220  0.16978582    -0.19000
F4214       F  0.77648643  0.27477699  0.17507291    -0.19100
F4215       F  0.78124673  0.29481698  0.20980709    -0.22900
F4216       F  0.79359936  0.31998872  0.17708622    -0.24500
C4217       C  0.56873218  0.98440654  0.26414183    -0.11300
C4218       C  0.56701246  0.99136382  0.24111931     0.11300
C4219       C  0.55176505  0.97009607  0.22479695    -0.03100
C4220       C  0.53600796  0.94277519  0.23276581    -0.05800
C4221       C  0.53572717  0.93621507  0.25621610    -0.16600
C4222       C  0.55319941  0.95699951  0.27199898     0.02300
C4223       C  0.57849994  0.02090813  0.23525778     0.12300
C4224       C  0.55155343  0.97629765  0.19923797     0.62900
H4225       H  0.52289815  0.92637657  0.22088887     0.12300
C4226       C  0.55496976  0.95005609  0.29701599     0.55000
H4227       H  0.58131995  0.00082265  0.27617531     0.08100
C4228       C  0.56439744  0.03431962  0.24161526    -0.05700
C4229       C  0.57505804  0.06157493  0.23448667    -0.06500
C4230       C  0.59908057  0.07596698  0.22097874    -0.16100
C4231       C  0.61351260  0.06268053  0.21490019    -0.01600
C4232       C  0.60308229  0.03540587  0.22251439    -0.09200
C4233       C  0.53790021  0.01983360  0.25567212     0.65100
H4234       H  0.56443297  0.07195207  0.23944711     0.10500
C4235       C  0.63912558  0.07662814  0.19981899     0.63500
H4236       H  0.61383129  0.02495457  0.21826973     0.07900
F4237       F  0.57304623  0.97317012  0.30967642    -0.19600
F4238       F  0.56405987  0.93184833  0.29772723    -0.15800
F4239       F  0.52935153  0.93806000  0.30738962    -0.19300
F4240       F  0.57798097  0.98893633  0.19043536    -0.22700
F4241       F  0.54143772  0.99345525  0.19633362    -0.24100
F4242       F  0.53537939  0.95263823  0.18644094    -0.18100
F4243       F  0.66031898  0.09848835  0.21167782    -0.20600
F4244       F  0.63380281  0.08600242  0.17959360    -0.21800
F4245       F  0.64777906  0.05884709  0.19372359    -0.19000
F4246       F  0.52647844  0.03594274  0.25835890    -0.19100
F4247       F  0.54307597  0.01374241  0.27752262    -0.22900
F4248       F  0.51873392  0.99579342  0.24469569    -0.24500
loop_ 
_geom_bond_atom_site_label_1 
_geom_bond_atom_site_label_2 
_geom_bond_distance 
_geom_bond_site_symmetry_2 
_ccdc_geom_bond_type 
Fe1          O17   2.072       .  S
Fe1           O7   2.082       .  S
Fe1          O14   2.092       .  S
Fe1           O6   2.056       .  S
Fe1          O12   1.980       .  S
Fe2           O5   2.043       .  S
Fe2           O9   2.041       .  S
Fe2          O13   2.046       .  S
Fe2          O18   2.053       .  S
Fe2          O12   1.957       .  S
Fe3          O21   2.102       .  S
Fe3           O8   2.058       .  S
Fe3          O15   2.044       .  S
Fe3           O4   2.090       .  S
Fe3          O12   1.978       .  S
O4           C11   1.273       .  A
O5           C19   1.265       .  A
O6           C11   1.270       .  A
O7           C10   1.271       .  A
O8           C20   1.263       .  A
O9           C22   1.265       .  A
C10          O15   1.264       .  A
C10        C4061   1.472       .  S
C11        C4230   1.496       .  S
O13          C16   1.270       .  A
O14          C16   1.274       .  A
C16        C4157   1.489       .  S
O17          C22   1.266       .  A
O18          C20   1.265       .  A
C19          O21   1.278       .  A
C19        C4198   1.491       .  S
C20        C4134   1.479       .  S
C22        C4093   1.488       .  S
Fe23         O39   2.072       .  S
Fe23         O29   2.061       .  S
Fe23         O36   2.076       .  S
Fe23         O28   2.060       .  S
Fe23         O34   1.984       .  S
Fe24         O27   2.050       .  S
Fe24         O31   2.048       .  S
Fe24         O35   2.057       .  S
Fe24         O40   2.046       .  S
Fe24         O34   1.964       .  S
Fe25         O43   2.063       .  S
Fe25         O30   2.094       .  S
Fe25         O37   2.079       .  S
Fe25         O26   2.046       .  S
Fe25         O34   1.985       .  S
O26          C33   1.263       .  A
O27          C41   1.266       .  A
O28          C33   1.268       .  A
O29          C32   1.270       .  A
O30          C42   1.275       .  A
O31          C44   1.267       .  A
C32          O37   1.272       .  A
C32        C4029   1.484       .  S
C33        C3901   1.477       .  S
O35          C38   1.265       .  A
O36          C38   1.269       .  A
C38        C3965   1.483       .  S
O39          C44   1.269       .  A
O40          C42   1.266       .  A
C41          O43   1.263       .  A
C41        C3942   1.485       .  S
C42        C3997   1.474       .  S
C44        C4125   1.463       .  S
Fe45         O61   2.071       .  S
Fe45         O51   2.064       .  S
Fe45         O58   2.075       .  S
Fe45         O50   2.068       .  S
Fe45         O56   1.980       .  S
Fe46         O49   2.050       .  S
Fe46         O53   2.040       .  S
Fe46         O57   2.051       .  S
Fe46         O62   2.048       .  S
Fe46         O56   1.965       .  S
Fe47         O65   2.073       .  S
Fe47         O52   2.070       .  S
Fe47         O59   2.060       .  S
Fe47         O48   2.060       .  S
Fe47         O56   1.980       .  S
O48          C55   1.265       .  A
O49          C63   1.261       .  A
O50          C55   1.268       .  A
O51          C54   1.268       .  A
O52          C64   1.270       .  A
O53          C66   1.265       .  A
C54          O59   1.270       .  A
C54        C3741   1.491       .  S
C55        C3773   1.482       .  S
O57          C60   1.265       .  A
O58          C60   1.269       .  A
C60        C4006   1.488       .  S
O61          C66   1.269       .  A
O62          C64   1.269       .  A
C63          O65   1.268       .  A
C63        C3837   1.490       .  S
C64        C3869   1.468       .  S
C66        C3814   1.460       .  S
Fe67         O83   2.076       .  S
Fe67         O73   2.071       .  S
Fe67         O80   2.080       .  S
Fe67         O72   2.067       .  S
Fe67         O78   1.975       .  S
Fe68         O71   2.039       .  S
Fe68         O75   2.049       .  S
Fe68         O79   2.054       .  S
Fe68         O84   2.045       .  S
Fe68         O78   1.963       .  S
Fe69         O87   2.078       .  S
Fe69         O74   2.073       .  S
Fe69         O81   2.069       .  S
Fe69         O70   2.074       .  S
Fe69         O78   1.983       .  S
O70          C77   1.267       .  A
O71          C85   1.264       .  A
O72          C77   1.267       .  A
O73          C76   1.273       .  A
O74          C86   1.269       .  A
O75          C88   1.262       .  A
C76          O81   1.273       .  A
C76        C3622   1.485       .  S
C77        C3718   1.483       .  S
O79          C82   1.268       .  A
O80          C82   1.275       .  A
C82        C3846   1.482       .  S
O83          C88   1.266       .  A
O84          C86   1.266       .  A
C85          O87   1.269       .  A
C85        C4102   1.473       .  S
C86        C3677   1.474       .  S
C88        C3645   1.474       .  S
Fe89        O105   2.074       .  S
Fe89         O95   2.046       .  S
Fe89        O102   2.066       .  S
Fe89         O94   2.060       .  S
Fe89        O100   1.987       .  S
Fe90         O93   2.056       .  S
Fe90         O97   2.045       .  S
Fe90        O101   2.054       .  S
Fe90        O106   2.044       .  S
Fe90        O100   1.968       .  S
Fe91        O109   2.073       .  S
Fe91         O96   2.103       .  S
Fe91        O103   2.087       .  S
Fe91         O92   2.070       .  S
Fe91        O100   1.986       .  S
O92          C99   1.268       .  A
O93         C107   1.267       .  A
O94          C99   1.266       .  A
O95          C98   1.268       .  A
O96         C108   1.277       .  A
O97         C110   1.265       .  A
C98         O103   1.273       .  A
C98        C3590   1.491       .  S
C99        C3549   1.472       .  S
O101        C104   1.267       .  A
O102        C104   1.267       .  A
C104       C3878   1.477       .  S
O105        C110   1.267       .  A
O106        C108   1.265       .  A
C107        O109   1.266       .  A
C107       C4166   1.500       .  S
C108       C3974   1.479       .  S
C110       C3686   1.466       .  S
Fe111       O127   2.075       .  S
Fe111       O117   2.079       .  S
Fe111       O124   2.083       .  S
Fe111       O116   2.053       .  S
Fe111       O122   1.975       .  S
Fe112       O115   2.038       .  S
Fe112       O119   2.056       .  S
Fe112       O123   2.043       .  S
Fe112       O128   2.048       .  S
Fe112       O122   1.959       .  S
Fe113       O131   2.095       .  S
Fe113       O118   2.053       .  S
Fe113       O125   2.040       .  S
Fe113       O114   2.085       .  S
Fe113       O122   1.977       .  S
O114        C121   1.274       .  A
O115        C129   1.265       .  A
O116        C121   1.270       .  A
O117        C120   1.268       .  A
O118        C130   1.261       .  A
O119        C132   1.265       .  A
C120        O125   1.263       .  A
C120       C3494   1.485       .  S
C121       C3517   1.470       .  S
O123        C126   1.267       .  A
O124        C126   1.269       .  A
C126       C3933   1.495       .  S
O127        C132   1.270       .  A
O128        C130   1.261       .  A
C129        O131   1.279       .  A
C129       C3654   1.495       .  S
C130       C3805   1.465       .  S
C132       C4189   1.481       .  S
Fe133       O149   2.074       .  S
Fe133       O139   2.077       .  S
Fe133       O146   2.083       .  S
Fe133       O138   2.072       .  S
Fe133       O144   1.979       .  S
Fe134       O137   2.067       .  S
Fe134       O141   2.058       .  S
Fe134       O145   2.057       .  S
Fe134       O150   2.058       .  S
Fe134       O144   1.962       .  S
Fe135       O153   2.062       .  S
Fe135       O140   2.063       .  S
Fe135       O147   2.056       .  S
Fe135       O136   2.050       .  S
Fe135       O144   1.977       .  S
O136        C143   1.268       .  A
O137        C151   1.274       .  A
O138        C143   1.271       .  A
O139        C142   1.268       .  A
O140        C152   1.263       .  A
O141        C154   1.268       .  A
C142        O147   1.267       .  A
C142       C3613   1.505   1_556  S
C143       C3453   1.475       .  S
O145        C148   1.269       .  A
O146        C148   1.272       .  A
C148       C3325   1.475       .  S
O149        C154   1.268       .  A
O150        C152   1.263       .  A
C151        O153   1.270       .  A
C151       C3430   1.484       .  S
C152       C3357   1.473       .  S
C154       C3389   1.494       .  S
Fe155       O171   2.090       .  S
Fe155       O161   2.052       .  S
Fe155       O168   2.063       .  S
Fe155       O160   2.077       .  S
Fe155       O166   1.979       .  S
Fe156       O159   2.057       .  S
Fe156       O163   2.048       .  S
Fe156       O167   2.056       .  S
Fe156       O172   2.044       .  S
Fe156       O166   1.970       .  S
Fe157       O175   2.067       .  S
Fe157       O162   2.074       .  S
Fe157       O169   2.076       .  S
Fe157       O158   2.058       .  S
Fe157       O166   1.986       .  S
O158        C165   1.267       .  A
O159        C173   1.267       .  A
O160        C165   1.270       .  A
O161        C164   1.265       .  A
O162        C174   1.269       .  A
O163        C176   1.266       .  A
C164        O169   1.271       .  A
C164       C3293   1.492       .  S
C165       C3782   1.495       .  S
O167        C170   1.268       .  A
O168        C170   1.265       .  A
C170       C3197   1.488       .  S
O171        C176   1.273       .  A
O172        C174   1.266       .  A
C173        O175   1.269       .  A
C173       C3229   1.483       .  S
C174       C3261   1.470       .  S
C176       C3366   1.477       .  S
Fe177       O193   2.066       .  S
Fe177       O183   2.074       .  S
Fe177       O190   2.080       .  S
Fe177       O182   2.054       .  S
Fe177       O188   1.960       .  S
Fe178       O181   2.041       .  S
Fe178       O185   2.058       .  S
Fe178       O189   2.043       .  S
Fe178       O194   2.064       .  S
Fe178       O188   1.943       .  S
Fe179       O197   2.094       .  S
Fe179       O184   2.064       .  S
Fe179       O191   2.065       .  S
Fe179       O180   2.085       .  S
Fe179       O188   1.966       .  S
O180        C187   1.271       .  A
O181        C195   1.259       .  A
O182        C187   1.265       .  A
O183        C186   1.273       .  A
O184        C196   1.272       .  A
O185        C198   1.271       .  A
C186        O191   1.272       .  A
C186       C3165   1.467       .  S
C187       C3558   1.493       .  S
O189        C192   1.264       .  A
O190        C192   1.269       .  A
C192       C3110   1.487       .  S
O193        C198   1.270       .  A
O194        C196   1.273       .  A
C195        O197   1.270       .  A
C195       C3334   1.491       .  S
C196       C3206   1.465       .  S
C198       C3142   1.470       .  S
Fe199       O215   2.070       .  S
Fe199       O205   2.074       .  S
Fe199       O212   2.082       .  S
Fe199       O204   2.051       .  S
Fe199       O210   1.979       .  S
Fe200       O203   2.043       .  S
Fe200       O207   2.059       .  S
Fe200       O211   2.041       .  S
Fe200       O216   2.059       .  S
Fe200       O210   1.960       .  S
Fe201       O219   2.106       .  S
Fe201       O206   2.060       .  S
Fe201       O213   2.049       .  S
Fe201       O202   2.097       .  S
Fe201       O210   1.977       .  S
O202        C209   1.273       .  A
O203        C217   1.267       .  A
O204        C209   1.267       .  A
O205        C208   1.271       .  A
O206        C218   1.263       .  A
O207        C220   1.267       .  A
C208        O213   1.267       .  A
C208       C4070   1.475   1_556  S
C209       C3069   1.499       .  S
O211        C214   1.268       .  A
O212        C214   1.274       .  A
C214       C3037   1.472       .  S
O215        C220   1.265       .  A
O216        C218   1.267       .  A
C217        O219   1.278       .  A
C217       C3398   1.477       .  S
C218       C3133   1.495       .  S
C220       C3005   1.503       .  S
Fe221       O237   2.092       .  S
Fe221       O227   2.043       .  S
Fe221       O234   2.059       .  S
Fe221       O226   2.076       .  S
Fe221       O232   1.969       .  S
Fe222       O225   2.059       .  S
Fe222       O229   2.045       .  S
Fe222       O233   2.059       .  S
Fe222       O238   2.040       .  S
Fe222       O232   1.950       .  S
Fe223       O241   2.062       .  S
Fe223       O228   2.085       .  S
Fe223       O235   2.069       .  S
Fe223       O224   2.045       .  S
Fe223       O232   1.967       .  S
O224        C231   1.267       .  A
O225        C239   1.264       .  A
O226        C231   1.271       .  A
O227        C230   1.264       .  A
O228        C240   1.272       .  A
O229        C242   1.267       .  A
C230        O235   1.270       .  A
C230       C2973   1.473       .  S
C231       C3910   1.476       .  S
O233        C236   1.266       .  A
O234        C236   1.264       .  A
C236       C3270   1.472       .  S
O237        C242   1.274       .  A
O238        C240   1.266       .  A
C239        O241   1.267       .  A
C239       C3046   1.490       .  S
C240       C3101   1.464       .  S
C242       C2941   1.468       .  S
Fe243       O259   2.062       .  S
Fe243       O249   2.081       .  S
Fe243       O256   2.090       .  S
Fe243       O248   2.042       .  S
Fe243       O254   1.974       .  S
Fe244       O247   2.035       .  S
Fe244       O251   2.050       .  S
Fe244       O255   2.036       .  S
Fe244       O260   2.052       .  S
Fe244       O254   1.955       .  S
Fe245       O263   2.108       .  S
Fe245       O250   2.067       .  S
Fe245       O257   2.057       .  S
Fe245       O246   2.097       .  S
Fe245       O254   1.980       .  S
O246        C253   1.273       .  A
O247        C261   1.266       .  A
O248        C253   1.263       .  A
O249        C252   1.273       .  A
O250        C262   1.265       .  A
O251        C264   1.262       .  A
C252        O257   1.270       .  A
C252       C3485   1.490   1_556  S
C253       C2909   1.483       .  S
O255        C258   1.264       .  A
O256        C258   1.276       .  A
C258       C3238   1.487       .  S
O259        C264   1.265       .  A
O260        C262   1.267       .  A
C261        O263   1.278       .  A
C261       C3014   1.482       .  S
C262       C2950   1.494       .  S
C264       C3421   1.476       .  S
Fe265       O281   2.072       .  S
Fe265       O271   2.082       .  S
Fe265       O278   2.086       .  S
Fe265       O270   2.065       .  S
Fe265       O276   1.979       .  S
Fe266       O269   2.053       .  S
Fe266       O273   2.058       .  S
Fe266       O277   2.051       .  S
Fe266       O282   2.054       .  S
Fe266       O276   1.964       .  S
Fe267       O285   2.091       .  S
Fe267       O272   2.068       .  S
Fe267       O279   2.049       .  S
Fe267       O268   2.085       .  S
Fe267       O276   1.980       .  S
O268        C275   1.272       .  A
O269        C283   1.271       .  A
O270        C275   1.272       .  A
O271        C274   1.271       .  A
O272        C284   1.264       .  A
O273        C286   1.267       .  A
C274        O279   1.263       .  A
C274       C2717   1.487       .  S
C275       C2877   1.501       .  S
O277        C280   1.268       .  A
O278        C280   1.274       .  A
C280       C2822   1.482       .  S
O281        C286   1.267       .  A
O282        C284   1.263       .  A
C283        O285   1.275       .  A
C283       C2845   1.482       .  S
C284       C2781   1.475       .  S
C286       C2749   1.489       .  S
Fe287       O303   2.069       .  S
Fe287       O293   2.044       .  S
Fe287       O300   2.067       .  S
Fe287       O292   2.058       .  S
Fe287       O298   1.976       .  S
Fe288       O291   2.055       .  S
Fe288       O295   2.048       .  S
Fe288       O299   2.062       .  S
Fe288       O304   2.044       .  S
Fe288       O298   1.961       .  S
Fe289       O307   2.064       .  S
Fe289       O294   2.086       .  S
Fe289       O301   2.074       .  S
Fe289       O290   2.057       .  S
Fe289       O298   1.978       .  S
O290        C297   1.266       .  A
O291        C305   1.262       .  A
O292        C297   1.269       .  A
O293        C296   1.264       .  A
O294        C306   1.273       .  A
O295        C308   1.267       .  A
C296        O301   1.270       .  A
C296       C2982   1.474       .  S
C297       C2589   1.484       .  S
O299        C302   1.267       .  A
O300        C302   1.267       .  A
C302       C2653   1.484       .  S
O303        C308   1.268       .  A
O304        C306   1.267       .  A
C305        O307   1.267       .  A
C305       C2813   1.492       .  S
C306       C2694   1.468       .  S
C308       C2621   1.460       .  S
Fe309       O325   2.093       .  S
Fe309       O315   2.056       .  S
Fe309       O322   2.068       .  S
Fe309       O314   2.084       .  S
Fe309       O320   1.979       .  S
Fe310       O313   2.065       .  S
Fe310       O317   2.049       .  S
Fe310       O321   2.054       .  S
Fe310       O326   2.050       .  S
Fe310       O320   1.960       .  S
Fe311       O329   2.060       .  S
Fe311       O316   2.087       .  S
Fe311       O323   2.073       .  S
Fe311       O312   2.052       .  S
Fe311       O320   1.976       .  S
O312        C319   1.266       .  A
O313        C327   1.266       .  A
O314        C319   1.272       .  A
O315        C318   1.266       .  A
O316        C328   1.272       .  A
O317        C330   1.267       .  A
C318        O323   1.271       .  A
C318       C3174   1.491       .  S
C319       C2461   1.474       .  S
O321        C324   1.267       .  A
O322        C324   1.267       .  A
C324       C2525   1.479       .  S
O325        C330   1.274       .  A
O326        C328   1.266       .  A
C327        O329   1.267       .  A
C327       C2557   1.491       .  S
C328       C2662   1.473       .  S
C330       C2502   1.485       .  S
Fe331       O347   2.076       .  S
Fe331       O337   2.074       .  S
Fe331       O344   2.083       .  S
Fe331       O336   2.068       .  S
Fe331       O342   1.982       .  S
Fe332       O335   2.051       .  S
Fe332       O339   2.054       .  S
Fe332       O343   2.053       .  S
Fe332       O348   2.043       .  S
Fe332       O342   1.967       .  S
Fe333       O351   2.087       .  S
Fe333       O338   2.058       .  S
Fe333       O345   2.057       .  S
Fe333       O334   2.078       .  S
Fe333       O342   1.988       .  S
O334        C341   1.269       .  A
O335        C349   1.268       .  A
O336        C341   1.269       .  A
O337        C340   1.271       .  A
O338        C350   1.264       .  A
O339        C352   1.265       .  A
C340        O345   1.267       .  A
C340       C2365   1.474       .  S
C341       C2429   1.481       .  S
O343        C346   1.268       .  A
O344        C346   1.273       .  A
C346       C2566   1.482       .  S
O347        C352   1.267       .  A
O348        C350   1.265       .  A
C349        O351   1.273       .  A
C349       C2758   1.486       .  S
C350       C2630   1.471       .  S
C352       C2406   1.489       .  S
Fe353       O369   2.073       .  S
Fe353       O359   2.059       .  S
Fe353       O366   2.071       .  S
Fe353       O358   2.064       .  S
Fe353       O364   1.976       .  S
Fe354       O357   2.055       .  S
Fe354       O361   2.063       .  S
Fe354       O365   2.057       .  S
Fe354       O370   2.066       .  S
Fe354       O364   1.963       .  S
Fe355       O373   2.075       .  S
Fe355       O360   2.065       .  S
Fe355       O367   2.067       .  S
Fe355       O356   2.055       .  S
Fe355       O364   1.981       .  S
O356        C363   1.263       .  A
O357        C371   1.267       .  A
O358        C363   1.269       .  A
O359        C362   1.268       .  A
O360        C372   1.270       .  A
O361        C374   1.270       .  A
C362        O367   1.272       .  A
C362       C3302   1.482       .  S
C363       C2301   1.487       .  S
O365        C368   1.266       .  A
O366        C368   1.268       .  A
C368       C2685   1.485       .  S
O369        C374   1.270       .  A
O370        C372   1.272       .  A
C371        O373   1.265       .  A
C371       C2342   1.493       .  S
C372       C2534   1.474       .  S
C374       C2790   1.471       .  S
Fe375       O391   2.064       .  S
Fe375       O381   2.091       .  S
Fe375       O388   2.095       .  S
Fe375       O380   2.057       .  S
Fe375       O386   1.977       .  S
Fe376       O379   2.042       .  S
Fe376       O383   2.068       .  S
Fe376       O387   2.053       .  S
Fe376       O392   2.065       .  S
Fe376       O386   1.958       .  S
Fe377       O395   2.099       .  S
Fe377       O382   2.064       .  S
Fe377       O389   2.058       .  S
Fe377       O378   2.086       .  S
Fe377       O386   1.978       .  S
O378        C385   1.274       .  A
O379        C393   1.267       .  A
O380        C385   1.270       .  A
O381        C384   1.271       .  A
O382        C394   1.264       .  A
O383        C396   1.269       .  A
C384        O389   1.266       .  A
C384       C2237   1.497       .  S
C385       C2278   1.476       .  S
O387        C390   1.267       .  A
O388        C390   1.272       .  A
C390       C2333   1.483       .  S
O391        C396   1.269       .  A
O392        C394   1.267       .  A
C393        O395   1.277       .  A
C393       C2397   1.483       .  S
C394       C2493   1.476       .  S
C396       C2854   1.478       .  S
Fe397       O413   2.073       .  S
Fe397       O403   2.066       .  S
Fe397       O410   2.075       .  S
Fe397       O402   2.060   1_554  S
Fe397       O408   1.980       .  S
Fe398       O401   2.050       .  S
Fe398       O405   2.048       .  S
Fe398       O409   2.046       .  S
Fe398       O414   2.053       .  S
Fe398       O408   1.963       .  S
Fe399       O417   2.078       .  S
Fe399       O404   2.075       .  S
Fe399       O411   2.072       .  S
Fe399       O400   2.077       .  S
Fe399       O408   1.978       .  S
O400        C407   1.270   1_554  A
O401        C415   1.260       .  A
O402        C407   1.265       .  A
O403        C406   1.270       .  A
O404        C416   1.274       .  A
O405        C418   1.268       .  A
C406        O411   1.272       .  A
C406       C2077   1.481       .  S
C407       C2470   1.498       .  S
O409        C412   1.265       .  A
O410        C412   1.267       .  A
C412       C2109   1.486       .  S
O413        C418   1.269       .  A
O414        C416   1.269       .  A
C415        O417   1.269       .  A
C415       C2173   1.504       .  S
C416       C2205   1.466       .  S
C418       C2150   1.463       .  S
Fe419       O435   2.074       .  S
Fe419       O425   2.085       .  S
Fe419       O432   2.089       .  S
Fe419       O424   2.072       .  S
Fe419       O430   1.984       .  S
Fe420       O423   2.062       .  S
Fe420       O427   2.056       .  S
Fe420       O431   2.052       .  S
Fe420       O436   2.058       .  S
Fe420       O430   1.969       .  S
Fe421       O439   2.084       .  S
Fe421       O426   2.064       .  S
Fe421       O433   2.054       .  S
Fe421       O422   2.080       .  S
Fe421       O430   1.987       .  S
O422        C429   1.272       .  A
O423        C437   1.269       .  A
O424        C429   1.271       .  A
O425        C428   1.270       .  A
O426        C438   1.264       .  A
O427        C440   1.267       .  A
C428        O433   1.266       .  A
C428       C2246   1.498       .  S
C429       C4221   1.479       .  S
O431        C434   1.267       .  A
O432        C434   1.272       .  A
C434       C2182   1.485       .  S
O435        C440   1.271       .  A
O436        C438   1.266       .  A
C437        O439   1.272       .  A
C437       C2045   1.486       .  S
C438       C2022   1.470       .  S
C440       C1981   1.486       .  S
Fe441       O457   2.076       .  S
Fe441       O447   2.075       .  S
Fe441       O454   2.082       .  S
Fe441       O446   2.065       .  S
Fe441       O452   1.982       .  S
Fe442       O445   2.044       .  S
Fe442       O449   2.056       .  S
Fe442       O453   2.042       .  S
Fe442       O458   2.044       .  S
Fe442       O452   1.968       .  S
Fe443       O461   2.083       .  S
Fe443       O448   2.067       .  S
Fe443       O455   2.056       .  S
Fe443       O444   2.072       .  S
Fe443       O452   1.985       .  S
O444        C451   1.269       .  A
O445        C459   1.268       .  A
O446        C451   1.268       .  A
O447        C450   1.269       .  A
O448        C460   1.265       .  A
O449        C462   1.266       .  A
C450        O455   1.269       .  A
C450       C2374   1.502       .  S
C451       C3526   1.485       .  S
O453        C456   1.266       .  A
O454        C456   1.273       .  A
C456       C1949   1.478       .  S
O457        C462   1.268       .  A
O458        C460   1.265       .  A
C459        O461   1.272       .  A
C459       C1990   1.474       .  S
C460       C2141   1.480       .  S
C462       C1917   1.493       .  S
Fe463       O479   2.097       .  S
Fe463       O469   2.053       .  S
Fe463       O476   2.061       .  S
Fe463       O468   2.082   1_554  S
Fe463       O474   1.976       .  S
Fe464       O467   2.057       .  S
Fe464       O471   2.046       .  S
Fe464       O475   2.047       .  S
Fe464       O480   2.041       .  S
Fe464       O474   1.957       .  S
Fe465       O483   2.062       .  S
Fe465       O470   2.087       .  S
Fe465       O477   2.075       .  S
Fe465       O466   2.049       .  S
Fe465       O474   1.984       .  S
O466        C473   1.268   1_554  A
O467        C481   1.265       .  A
O468        C473   1.273       .  A
O469        C472   1.265       .  A
O470        C482   1.272       .  A
O471        C484   1.270       .  A
C472        O477   1.268       .  A
C472       C1885   1.471       .  S
C473       C2598   1.480       .  S
O475        C478   1.262       .  A
O476        C478   1.266       .  A
C478       C1862   1.483       .  S
O479        C484   1.274       .  A
O480        C482   1.265       .  A
C481        O483   1.267       .  A
C481       C1958   1.481       .  S
C482       C2118   1.467       .  S
C484       C1830   1.507       .  S
Fe485       O501   2.066       .  S
Fe485       O491   2.072       .  S
Fe485       O498   2.076       .  S
Fe485       O490   2.050   1_554  S
Fe485       O496   1.970       .  S
Fe486       O489   2.053       .  S
Fe486       O493   2.052       .  S
Fe486       O497   2.052       .  S
Fe486       O502   2.057       .  S
Fe486       O496   1.954       .  S
Fe487       O505   2.089       .  S
Fe487       O492   2.057       .  S
Fe487       O499   2.050       .  S
Fe487       O488   2.076       .  S
Fe487       O496   1.970       .  S
O488        C495   1.271   1_554  A
O489        C503   1.268       .  A
O490        C495   1.264       .  A
O491        C494   1.272       .  A
O492        C504   1.266       .  A
O493        C506   1.266       .  A
C494        O499   1.266       .  A
C494       C1798   1.485       .  S
C495       C2310   1.490       .  S
O497        C500   1.269       .  A
O498        C500   1.269       .  A
C500       C2214   1.494       .  S
O501        C506   1.269       .  A
O502        C504   1.267       .  A
C503        O505   1.271       .  A
C503       C1757   1.496       .  S
C504       C1853   1.464       .  S
C506       C2013   1.479       .  S
Fe507       O523   2.083       .  S
Fe507       O513   2.081       .  S
Fe507       O520   2.094       .  S
Fe507       O512   2.072       .  S
Fe507       O518   1.990       .  S
Fe508       O511   2.037       .  S
Fe508       O515   2.049       .  S
Fe508       O519   2.036       .  S
Fe508       O524   2.056       .  S
Fe508       O518   1.967       .  S
Fe509       O527   2.095       .  S
Fe509       O514   2.076       .  S
Fe509       O521   2.064       .  S
Fe509       O510   2.089       .  S
Fe509       O518   1.984       .  S
O510        C517   1.272       .  A
O511        C525   1.263       .  A
O512        C517   1.273       .  A
O513        C516   1.273       .  A
O514        C526   1.270       .  A
O515        C528   1.266       .  A
C516        O521   1.266       .  A
C516       C2726   1.502       .  S
C517       C3709   1.512       .  S
O519        C522   1.264       .  A
O520        C522   1.272       .  A
C522       C1766   1.472       .  S
O523        C528   1.271       .  A
O524        C526   1.266       .  A
C525        O527   1.274       .  A
C525       C1926   1.477       .  S
C526       C1821   1.490       .  S
C528       C2054   1.483       .  S
Fe529       O545   2.084       .  S
Fe529       O535   2.060       .  S
Fe529       O542   2.067       .  S
Fe529       O534   2.076       .  S
Fe529       O540   1.980       .  S
Fe530       O533   2.056       .  S
Fe530       O537   2.042       .  S
Fe530       O541   2.055       .  S
Fe530       O546   2.052       .  S
Fe530       O540   1.955       .  S
Fe531       O549   2.055       .  S
Fe531       O536   2.097   1_655  S
Fe531       O543   2.082       .  S
Fe531       O532   2.046       .  S
Fe531       O540   1.973       .  S
O532        C539   1.264       .  A
O533        C547   1.264       .  A
O534        C539   1.269       .  A
O535        C538   1.271       .  A
O536        C548   1.275       .  A
O537        C550   1.267       .  A
C538        O543   1.272       .  A
C538       C4038   1.491       .  S
C539       C1597   1.480       .  S
O541        C544   1.269       .  A
O542        C544   1.266       .  A
C544       C1693   1.492       .  S
O545        C550   1.270       .  A
O546        C548   1.268   1_655  A
C547        O549   1.264       .  A
C547       C1661   1.474   1_655  S
C548       C1734   1.477       .  S
C550       C1629   1.475       .  S
Fe551       O567   2.060       .  S
Fe551       O557   2.073       .  S
Fe551       O564   2.077       .  S
Fe551       O556   2.051       .  S
Fe551       O562   1.985       .  S
Fe552       O555   2.050       .  S
Fe552       O559   2.053       .  S
Fe552       O563   2.049       .  S
Fe552       O568   2.053       .  S
Fe552       O562   1.966       .  S
Fe553       O571   2.088       .  S
Fe553       O558   2.055       .  S
Fe553       O565   2.046       .  S
Fe553       O554   2.081       .  S
Fe553       O562   1.983       .  S
O554        C561   1.271       .  A
O555        C569   1.269       .  A
O556        C561   1.266       .  A
O557        C560   1.269       .  A
O558        C570   1.262       .  A
O559        C572   1.264       .  A
C560        O565   1.267       .  A
C560       C1469   1.482       .  S
C561       C2886   1.484       .  S
O563        C566   1.267       .  A
O564        C566   1.273       .  A
C566       C1670   1.486       .  S
O567        C572   1.265       .  A
O568        C570   1.266       .  A
C569        O571   1.273       .  A
C569       C1565   1.481       .  S
C570       C1501   1.471       .  S
C572       C1533   1.477       .  S
Fe573       O589   2.055       .  S
Fe573       O579   2.078       .  S
Fe573       O586   2.089       .  S
Fe573       O578   2.059       .  S
Fe573       O584   1.957       .  S
Fe574       O577   2.052       .  S
Fe574       O581   2.066       .  S
Fe574       O585   2.049       .  S
Fe574       O590   2.072   1_545  S
Fe574       O584   1.942       .  S
Fe575       O593   2.078       .  S
Fe575       O580   2.056       .  S
Fe575       O587   2.052   1_565  S
Fe575       O576   2.067   1_565  S
Fe575       O584   1.953   1_565  S
O576        C583   1.268       .  A
O577        C591   1.262   1_545  A
O578        C583   1.271       .  A
O579        C582   1.273       .  A
O580        C592   1.268       .  A
O581        C594   1.272       .  A
C582        O587   1.266       .  A
C582       C3581   1.496       .  S
C583       C1373   1.488       .  S
O585        C588   1.264       .  A
O586        C588   1.273       .  A
C588       C1725   1.487       .  S
O589        C594   1.267       .  A
O590        C592   1.273       .  A
C591        O593   1.270       .  A
C591       C1405   1.500       .  S
C592       C1446   1.473       .  S
C594       C1510   1.465       .  S
Fe595       O611   2.106       .  S
Fe595       O601   2.077       .  S
Fe595       O608   2.074       .  S
Fe595       O600   2.084       .  S
Fe595       O606   1.952       .  S
Fe596       O599   2.025   1_565  S
Fe596       O603   2.056       .  S
Fe596       O607   2.115       .  S
Fe596       O612   2.034       .  S
Fe596       O606   1.907       .  S
Fe597       O615   2.115       .  S
Fe597       O602   2.119       .  S
Fe597       O609   2.069   1_545  S
Fe597       O598   2.070   1_545  S
Fe597       O606   1.950   1_545  S
O598        C605   1.275       .  A
O599        C613   1.275       .  A
O600        C605   1.280       .  A
O601        C604   1.279       .  A
O602        C614   1.286   1_545  A
O603        C616   1.273       .  A
C604        O609   1.280       .  A
C604       C1277   1.496       .  S
C605       C2269   1.484       .  S
O607        C610   1.296       .  A
O608        C610   1.275       .  A
C610       C1309   1.482       .  S
O611        C616   1.282       .  A
O612        C614   1.282       .  A
C613        O615   1.288       .  A
C613       C1542   1.476       .  S
C614       C1638   1.473   1_565  S
C616       C1350   1.507       .  S
Fe617       O633   2.082       .  S
Fe617       O623   2.037       .  S
Fe617       O630   2.055       .  S
Fe617       O622   2.065       .  S
Fe617       O628   1.970       .  S
Fe618       O621   2.059       .  S
Fe618       O625   2.051       .  S
Fe618       O629   2.058       .  S
Fe618       O634   2.046       .  S
Fe618       O628   1.957       .  S
Fe619       O637   2.055       .  S
Fe619       O624   2.085       .  S
Fe619       O631   2.070       .  S
Fe619       O620   2.049       .  S
Fe619       O628   1.975       .  S
O620        C627   1.267       .  A
O621        C635   1.267       .  A
O622        C627   1.272       .  A
O623        C626   1.262       .  A
O624        C636   1.272       .  A
O625        C638   1.270       .  A
C626        O631   1.268       .  A
C626       C3750   1.471       .  S
C627       C1222   1.475       .  S
O629        C632   1.265       .  A
O630        C632   1.262       .  A
C632       C1437   1.478       .  S
O633        C638   1.273       .  A
O634        C636   1.268       .  A
C635        O637   1.263       .  A
C635       C1318   1.488       .  S
C636       C1702   1.468       .  S
C638       C1245   1.467       .  S
Fe639       O655   2.076       .  S
Fe639       O645   2.075       .  S
Fe639       O652   2.082       .  S
Fe639       O644   2.058       .  S
Fe639       O650   1.987       .  S
Fe640       O643   2.049   1_455  S
Fe640       O647   2.053       .  S
Fe640       O651   2.046       .  S
Fe640       O656   2.051   1_455  S
Fe640       O650   1.962       .  S
Fe641       O659   2.105       .  S
Fe641       O646   2.074       .  S
Fe641       O653   2.071       .  S
Fe641       O642   2.097       .  S
Fe641       O650   1.985   1_655  S
O642        C649   1.272   1_655  A
O643        C657   1.268       .  A
O644        C649   1.268       .  A
O645        C648   1.271   1_455  A
O646        C658   1.267       .  A
O647        C660   1.265       .  A
C648        O653   1.273       .  A
C648       C1181   1.496       .  S
C649       C2438   1.510       .  S
O651        C654   1.267       .  A
O652        C654   1.272       .  A
C654       C1414   1.471       .  S
O655        C660   1.267       .  A
O656        C658   1.266       .  A
C657        O659   1.276       .  A
C657       C1341   1.489       .  S
C658       C1254   1.485       .  S
C660       C1574   1.481       .  S
Fe661       O677   2.086       .  S
Fe661       O667   2.069       .  S
Fe661       O674   2.074       .  S
Fe661       O666   2.074       .  S
Fe661       O672   1.984       .  S
Fe662       O665   2.051       .  S
Fe662       O669   2.050       .  S
Fe662       O673   2.044       .  S
Fe662       O678   2.051       .  S
Fe662       O672   1.956       .  S
Fe663       O681   2.080       .  S
Fe663       O668   2.090       .  S
Fe663       O675   2.072       .  S
Fe663       O664   2.074       .  S
Fe663       O672   1.980       .  S
O664        C671   1.271       .  A
O665        C679   1.268       .  A
O666        C671   1.271       .  A
O667        C670   1.269       .  A
O668        C680   1.272       .  A
O669        C682   1.267       .  A
C670        O675   1.271       .  A
C670       C1190   1.495       .  S
C671       C2918   1.477       .  S
O673        C676   1.265       .  A
O674        C676   1.268       .  A
C676       C1053   1.473       .  S
O677        C682   1.271       .  A
O678        C680   1.263       .  A
C679        O681   1.270       .  A
C679       C1149   1.477   1_655  S
C680       C1117   1.497       .  S
C682       C1085   1.485       .  S
Fe683       O699   2.109       .  S
Fe683       O689   2.049       .  S
Fe683       O696   2.064       .  S
Fe683       O688   2.090       .  S
Fe683       O694   1.967       .  S
Fe684       O687   2.058   1_565  S
Fe684       O691   2.037       .  S
Fe684       O695   2.057       .  S
Fe684       O700   2.038   1_565  S
Fe684       O694   1.953       .  S
Fe685       O703   2.060       .  S
Fe685       O690   2.108       .  S
Fe685       O697   2.092   1_545  S
Fe685       O686   2.045   1_545  S
Fe685       O694   1.975   1_545  S
O686        C693   1.269       .  A
O687        C701   1.268       .  A
O688        C693   1.275       .  A
O689        C692   1.264       .  A
O690        C702   1.276       .  A
O691        C704   1.266       .  A
C692        O697   1.273       .  A
C692       C2086   1.497       .  S
C693       C1382   1.482       .  S
O695        C698   1.267       .  A
O696        C698   1.264       .  A
C698        C957   1.488       .  S
O699        C704   1.278       .  A
O700        C702   1.264       .  A
C701        O703   1.265       .  A
C701        C998   1.480       .  S
C702       C1021   1.475       .  S
C704       C1126   1.485       .  S
Fe705       O721   2.063       .  S
Fe705       O711   2.061       .  S
Fe705       O718   2.074       .  S
Fe705       O710   2.049       .  S
Fe705       O716   1.981       .  S
Fe706       O709   2.035       .  S
Fe706       O713   2.061       .  S
Fe706       O717   2.044       .  S
Fe706       O722   2.063       .  S
Fe706       O716   1.963       .  S
Fe707       O725   2.088       .  S
Fe707       O712   2.080       .  S
Fe707       O719   2.066       .  S
Fe707       O708   2.085       .  S
Fe707       O716   1.988       .  S
O708        C715   1.270       .  A
O709        C723   1.265       .  A
O710        C715   1.268       .  A
O711        C714   1.266       .  A
O712        C724   1.269       .  A
O713        C726   1.265       .  A
C714        O719   1.269       .  A
C714       C1478   1.495       .  S
C715       C3462   1.505       .  S
O717        C720   1.267       .  A
O718        C720   1.269       .  A
C720        C989   1.482       .  S
O721        C726   1.266       .  A
O722        C724   1.267       .  A
C723        O725   1.272       .  A
C723        C934   1.477       .  S
C724        C902   1.482       .  S
C726       C1158   1.482       .  S
Fe727       O743   2.073       .  S
Fe727       O733   2.072       .  S
Fe727       O740   2.085       .  S
Fe727       O732   2.058       .  S
Fe727       O738   1.984       .  S
Fe728       O731   2.046   1_545  S
Fe728       O735   2.045       .  S
Fe728       O739   2.046       .  S
Fe728       O744   2.044   1_545  S
Fe728       O738   1.967       .  S
Fe729       O747   2.094       .  S
Fe729       O734   2.072       .  S
Fe729       O741   2.054   1_565  S
Fe729       O730   2.088   1_565  S
Fe729       O738   1.984   1_565  S
O730        C737   1.272       .  A
O731        C745   1.266       .  A
O732        C737   1.266       .  A
O733        C736   1.270       .  A
O734        C746   1.267       .  A
O735        C748   1.262       .  A
C736        O741   1.269       .  A
C736       C1286   1.484       .  S
C737       C3078   1.493       .  S
O739        C742   1.267       .  A
O740        C742   1.273       .  A
C742        C870   1.480       .  S
O743        C748   1.267       .  A
O744        C746   1.265       .  A
C745        O747   1.273       .  A
C745       C1094   1.479       .  S
C746        C829   1.486       .  S
C748        C925   1.481       .  S
Fe749       O765   2.083       .  S
Fe749       O755   2.056       .  S
Fe749       O762   2.073       .  S
Fe749       O754   2.077       .  S
Fe749       O760   1.988       .  S
Fe750       O753   2.066   1_455  S
Fe750       O757   2.056       .  S
Fe750       O761   2.058       .  S
Fe750       O766   2.052   1_455  S
Fe750       O760   1.971       .  S
Fe751       O769   2.063       .  S
Fe751       O756   2.080       .  S
Fe751       O763   2.070       .  S
Fe751       O752   2.057       .  S
Fe751       O760   1.986   1_655  S
O752        C759   1.267       .  A
O753        C767   1.266       .  A
O754        C759   1.271   1_455  A
O755        C758   1.268       .  A
O756        C768   1.270       .  A
O757        C770   1.268       .  A
C758        O763   1.268   1_455  A
C758       C1894   1.485       .  S
C759       C1606   1.476       .  S
O761        C764   1.266       .  A
O762        C764   1.268       .  A
C764       C1030   1.482       .  S
O765        C770   1.272       .  A
O766        C768   1.266       .  A
C767        O769   1.267       .  A
C767        C861   1.493       .  S
C768        C806   1.472       .  S
C770        C893   1.475       .  S
Fe771       O787   2.075       .  S
Fe771       O777   2.061       .  S
Fe771       O784   2.077       .  S
Fe771       O776   2.056       .  S
Fe771       O782   1.984       .  S
Fe772       O775   2.043       .  S
Fe772       O779   2.052       .  S
Fe772       O783   2.045       .  S
Fe772       O788   2.053       .  S
Fe772       O782   1.966       .  S
Fe773       O791   2.076       .  S
Fe773       O778   2.066       .  S
Fe773       O785   2.057       .  S
Fe773       O774   2.060       .  S
Fe773       O782   1.987       .  S
O774        C781   1.269       .  A
O775        C789   1.265       .  A
O776        C781   1.266       .  A
O777        C780   1.269       .  A
O778        C790   1.267       .  A
O779        C792   1.267       .  A
C780        O785   1.266       .  A
C780       C1789   1.473       .  S
C781       C1213   1.486       .  S
O783        C786   1.262       .  A
O784        C786   1.270       .  A
C786        C797   1.489       .  S
O787        C792   1.269       .  A
O788        C790   1.268       .  A
C789        O791   1.267       .  A
C789       C1062   1.494       .  S
C790        C966   1.467       .  S
C792        C838   1.468       .  S
C793        C794   1.401       .  A
C793        C798   1.402       .  A
C793        H803   1.084       .  S
C794        C799   1.484   1_565  S
C794        C795   1.417       .  A
C795        C796   1.407       .  A
C795        C800   1.517       .  S
C796        C797   1.408       .  A
C796        H801   1.084       .  S
C797        C798   1.424       .  A
C798        C802   1.521       .  S
C799        C804   1.416       .  A
C799        C808   1.405       .  A
C800        F816   1.383       .  S
C800        F817   1.382   1_565  S
C800        F818   1.384       .  S
C802        F813   1.385       .  S
C802        F814   1.383       .  S
C802        F815   1.383       .  S
C804        C805   1.405       .  A
C804        C809   1.519       .  S
C805        C806   1.401       .  A
C805        H810   1.080       .  S
C806        C807   1.413       .  A
C807        C808   1.407       .  A
C807        C811   1.518       .  S
C808        H812   1.084       .  S
C809        F822   1.385       .  S
C809        F823   1.381       .  S
C809        F824   1.383       .  S
C811        F819   1.385       .  S
C811        F820   1.383       .  S
C811        F821   1.383       .  S
C825        C826   1.403       .  A
C825        C830   1.412       .  A
C825        H835   1.083       .  S
C826        C831   1.480   1_556  S
C826        C827   1.415       .  A
C827        C828   1.399       .  A
C827        C832   1.524       .  S
C828        C829   1.406       .  A
C828        H833   1.083       .  S
C829        C830   1.421       .  A
C830        C834   1.518       .  S
C831        C836   1.416       .  A
C831        C840   1.401       .  A
C832        F848   1.382       .  S
C832        F849   1.383   1_556  S
C832        F850   1.385       .  S
C834        F845   1.384       .  S
C834        F846   1.383       .  S
C834        F847   1.383       .  S
C836        C837   1.406       .  A
C836        C841   1.519       .  S
C837        C838   1.401       .  A
C837        H842   1.084       .  S
C838        C839   1.413       .  A
C839        C840   1.405       .  A
C839        C843   1.515       .  S
C840        H844   1.084   1_554  S
C841        F854   1.384       .  S
C841        F855   1.382       .  S
C841        F856   1.383       .  S
C843        F851   1.383       .  S
C843        F852   1.382       .  S
C843        F853   1.384       .  S
C857        C858   1.401       .  A
C857        C862   1.407   1_556  A
C857        H867   1.083       .  S
C858        C863   1.484       .  S
C858        C859   1.412   1_556  A
C859        C860   1.407       .  A
C859        C864   1.518       .  S
C860        C861   1.411       .  A
C860        H865   1.082       .  S
C861        C862   1.423       .  A
C862        C866   1.520       .  S
C863        C868   1.418       .  A
C863        C872   1.402       .  A
C864        F880   1.382       .  S
C864        F881   1.384   1_554  S
C864        F882   1.385       .  S
C866        F877   1.384   1_655  S
C866        F878   1.385   1_554  S
C866        F879   1.382       .  S
C868        C869   1.407       .  A
C868        C873   1.517       .  S
C869        C870   1.404       .  A
C869        H874   1.084       .  S
C870        C871   1.419       .  A
C871        C872   1.403       .  A
C871        C875   1.519       .  S
C872        H876   1.084       .  S
C873        F886   1.384       .  S
C873        F887   1.383       .  S
C873        F888   1.382       .  S
C875        F883   1.383       .  S
C875        F884   1.384       .  S
C875        F885   1.385       .  S
C889        C890   1.401       .  A
C889        C894   1.404       .  A
C889        H899   1.084       .  S
C890        C895   1.485   1_554  S
C890        C891   1.417       .  A
C891        C892   1.410       .  A
C891        C896   1.516       .  S
C892        C893   1.402       .  A
C892        H897   1.084       .  S
C893        C894   1.416       .  A
C894        C898   1.517       .  S
C895        C900   1.419       .  A
C895        C904   1.400       .  A
C896        F912   1.382   1_554  S
C896        F913   1.383   1_554  S
C896        F914   1.385       .  S
C898        F909   1.385       .  S
C898        F910   1.382       .  S
C898        F911   1.381       .  S
C900        C901   1.413       .  A
C900        C905   1.516       .  S
C901        C902   1.405       .  A
C901        H906   1.084       .  S
C902        C903   1.416       .  A
C903        C904   1.400       .  A
C903        C907   1.515       .  S
C904        H908   1.084       .  S
C905        F918   1.384       .  S
C905        F919   1.382   1_556  S
C905        F920   1.383   1_556  S
C907        F915   1.385       .  S
C907        F916   1.382       .  S
C907        F917   1.383       .  S
C921        C922   1.399       .  A
C921        C926   1.403       .  A
C921        H931   1.084       .  S
C922        C927   1.479   1_655  S
C922        C923   1.412       .  A
C923        C924   1.408       .  A
C923        C928   1.518       .  S
C924        C925   1.407       .  A
C924        H929   1.083       .  S
C925        C926   1.421       .  A
C926        C930   1.519       .  S
C927        C932   1.415       .  A
C927        C936   1.406       .  A
C928        F944   1.383       .  S
C928        F945   1.382       .  S
C928        F946   1.384       .  S
C930        F941   1.383       .  S
C930        F942   1.385       .  S
C930        F943   1.383       .  S
C932        C933   1.395       .  A
C932        C937   1.525   1_455  S
C933        C934   1.401       .  A
C933        H938   1.076       .  S
C934        C935   1.417       .  A
C935        C936   1.414       .  A
C935        C939   1.517       .  S
C936        H940   1.082       .  S
C937        F950   1.385   1_655  S
C937        F951   1.382       .  S
C937        F952   1.381       .  S
C939        F947   1.383       .  S
C939        F948   1.382       .  S
C939        F949   1.385       .  S
C953        C954   1.399       .  A
C953        C958   1.408   1_655  A
C953        H963   1.083       .  S
C954        C959   1.478       .  S
C954        C955   1.412       .  A
C955        C956   1.402   1_655  A
C955        C960   1.521       .  S
C956        C957   1.407       .  A
C956        H961   1.083       .  S
C957        C958   1.424       .  A
C958        C962   1.518       .  S
C959        C964   1.417       .  A
C959        C968   1.402       .  A
C960        F976   1.383       .  S
C960        F977   1.383       .  S
C960        F978   1.384       .  S
C962        F973   1.381       .  S
C962        F974   1.385       .  S
C962        F975   1.381       .  S
C964        C965   1.401       .  A
C964        C969   1.521       .  S
C965        C966   1.399       .  A
C965        H970   1.084       .  S
C966        C967   1.415       .  A
C967        C968   1.408       .  A
C967        C971   1.518       .  S
C968        H972   1.083       .  S
C969        F982   1.385       .  S
C969        F983   1.383       .  S
C969        F984   1.382       .  S
C971        F979   1.384       .  S
C971        F980   1.383       .  S
C971        F981   1.383       .  S
C985        C986   1.401       .  A
C985        C990   1.409       .  A
C985        H995   1.084       .  S
C986        C991   1.479       .  S
C986        C987   1.415       .  A
C987        C988   1.400       .  A
C987        C992   1.523   1_556  S
C988        C989   1.404       .  A
C988        H993   1.084       .  S
C989        C990   1.421       .  A
C990        C994   1.518       .  S
C991        C996   1.414       .  A
C991       C1000   1.402   1_556  A
C992       F1008   1.382       .  S
C992       F1009   1.383       .  S
C992       F1010   1.385       .  S
C994       F1005   1.385       .  S
C994       F1006   1.383       .  S
C994       F1007   1.383       .  S
C996        C997   1.400   1_556  A
C996       C1001   1.521       .  S
C997        C998   1.405       .  A
C997       H1002   1.084   1_545  S
C998        C999   1.420       .  A
C999       C1000   1.409       .  A
C999       C1003   1.518       .  S
C1000      H1004   1.083       .  S
C1001      F1014   1.385   1_545  S
C1001      F1015   1.382       .  S
C1001      F1016   1.383       .  S
C1003      F1011   1.385       .  S
C1003      F1012   1.383       .  S
C1003      F1013   1.383       .  S
C1017      C1018   1.402       .  A
C1017      C1022   1.403       .  A
C1017      H1027   1.083       .  S
C1018      C1023   1.488       .  S
C1018      C1019   1.418       .  A
C1019      C1020   1.413       .  A
C1019      C1024   1.517       .  S
C1020      C1021   1.404       .  A
C1020      H1025   1.083       .  S
C1021      C1022   1.415       .  A
C1022      C1026   1.519       .  S
C1023      C1028   1.418       .  A
C1023      C1032   1.405       .  A
C1024      F1040   1.382       .  S
C1024      F1041   1.382       .  S
C1024      F1042   1.385       .  S
C1026      F1037   1.385       .  S
C1026      F1038   1.382       .  S
C1026      F1039   1.382       .  S
C1028      C1029   1.408       .  A
C1028      C1033   1.520       .  S
C1029      C1030   1.404       .  A
C1029      H1034   1.082       .  S
C1030      C1031   1.415       .  A
C1031      C1032   1.407       .  A
C1031      C1035   1.517       .  S
C1032      H1036   1.083       .  S
C1033      F1046   1.384       .  S
C1033      F1047   1.381       .  S
C1033      F1048   1.382       .  S
C1035      F1043   1.382   1_455  S
C1035      F1044   1.383       .  S
C1035      F1045   1.385       .  S
C1049      C1050   1.405       .  A
C1049      C1054   1.410       .  A
C1049      H1059   1.083       .  S
C1050      C1055   1.482       .  S
C1050      C1051   1.417       .  A
C1051      C1052   1.400       .  A
C1051      C1056   1.522       .  S
C1052      C1053   1.402       .  A
C1052      H1057   1.084       .  S
C1053      C1054   1.414       .  A
C1054      C1058   1.516       .  S
C1055      C1060   1.414       .  A
C1055      C1064   1.401   1_556  A
C1056      F1072   1.382   1_556  S
C1056      F1073   1.383   1_556  S
C1056      F1074   1.385       .  S
C1058      F1069   1.384       .  S
C1058      F1070   1.385       .  S
C1058      F1071   1.383       .  S
C1060      C1061   1.401   1_556  A
C1060      C1065   1.523       .  S
C1061      C1062   1.409       .  A
C1061      H1066   1.082       .  S
C1062      C1063   1.425       .  A
C1063      C1064   1.411       .  A
C1063      C1067   1.518       .  S
C1064      H1068   1.083       .  S
C1065      F1078   1.385       .  S
C1065      F1079   1.382       .  S
C1065      F1080   1.383       .  S
C1067      F1075   1.385       .  S
C1067      F1076   1.380       .  S
C1067      F1077   1.383       .  S
C1081      C1082   1.400       .  A
C1081      C1086   1.401       .  A
C1081      H1091   1.085       .  S
C1082      C1087   1.484       .  S
C1082      C1083   1.414       .  A
C1083      C1084   1.411       .  A
C1083      C1088   1.515       .  S
C1084      C1085   1.406       .  A
C1084      H1089   1.083       .  S
C1085      C1086   1.418       .  A
C1086      C1090   1.514       .  S
C1087      C1092   1.418       .  A
C1087      C1096   1.405       .  A
C1088      F1104   1.383       .  S
C1088      F1105   1.382       .  S
C1088      F1106   1.384       .  S
C1090      F1101   1.382       .  S
C1090      F1102   1.384       .  S
C1090      F1103   1.380       .  S
C1092      C1093   1.403       .  A
C1092      C1097   1.524       .  S
C1093      C1094   1.402       .  A
C1093      H1098   1.084       .  S
C1094      C1095   1.416       .  A
C1095      C1096   1.414       .  A
C1095      C1099   1.516       .  S
C1096      H1100   1.083       .  S
C1097      F1110   1.385       .  S
C1097      F1111   1.382       .  S
C1097      F1112   1.381       .  S
C1099      F1107   1.385       .  S
C1099      F1108   1.383       .  S
C1099      F1109   1.382       .  S
C1113      C1114   1.398       .  A
C1113      C1118   1.406   1_455  A
C1113      H1123   1.083       .  S
C1114      C1119   1.489   1_556  S
C1114      C1115   1.413       .  A
C1115      C1116   1.413       .  A
C1115      C1120   1.517       .  S
C1116      C1117   1.410   1_455  A
C1116      H1121   1.083   1_455  S
C1117      C1118   1.429       .  A
C1118      C1122   1.524       .  S
C1119      C1124   1.417       .  A
C1119      C1128   1.404       .  A
C1120      F1136   1.382       .  S
C1120      F1137   1.382       .  S
C1120      F1138   1.384       .  S
C1122      F1133   1.385       .  S
C1122      F1134   1.383       .  S
C1122      F1135   1.382       .  S
C1124      C1125   1.406       .  A
C1124      C1129   1.520   1_554  S
C1125      C1126   1.406       .  A
C1125      H1130   1.084       .  S
C1126      C1127   1.418       .  A
C1127      C1128   1.410       .  A
C1127      C1131   1.515       .  S
C1128      H1132   1.083       .  S
C1129      F1142   1.385       .  S
C1129      F1143   1.382       .  S
C1129      F1144   1.382       .  S
C1131      F1139   1.383       .  S
C1131      F1140   1.383       .  S
C1131      F1141   1.384       .  S
C1145      C1146   1.407       .  A
C1145      C1150   1.414       .  A
C1145      H1155   1.082       .  S
C1146      C1151   1.481       .  S
C1146      C1147   1.415       .  A
C1147      C1148   1.398       .  A
C1147      C1152   1.522       .  S
C1148      C1149   1.401       .  A
C1148      H1153   1.080       .  S
C1149      C1150   1.416       .  A
C1150      C1154   1.516       .  S
C1151      C1156   1.416   1_565  A
C1151      C1160   1.403   1_565  A
C1152      F1168   1.382       .  S
C1152      F1169   1.381       .  S
C1152      F1170   1.385       .  S
C1154      F1165   1.382       .  S
C1154      F1166   1.384       .  S
C1154      F1167   1.380   1_455  S
C1156      C1157   1.404       .  A
C1156      C1161   1.518   1_545  S
C1157      C1158   1.404       .  A
C1157      H1162   1.084       .  S
C1158      C1159   1.419       .  A
C1159      C1160   1.407       .  A
C1159      C1163   1.519       .  S
C1160      H1164   1.083       .  S
C1161      F1174   1.383   1_565  S
C1161      F1175   1.383   1_565  S
C1161      F1176   1.381       .  S
C1163      F1171   1.385       .  S
C1163      F1172   1.383       .  S
C1163      F1173   1.381       .  S
C1177      C1178   1.401       .  A
C1177      C1182   1.410   1_655  A
C1177      H1187   1.083   1_655  S
C1178      C1183   1.487       .  S
C1178      C1179   1.413       .  A
C1179      C1180   1.408       .  A
C1179      C1184   1.519       .  S
C1180      C1181   1.409       .  A
C1180      H1185   1.082       .  S
C1181      C1182   1.426   1_655  A
C1182      C1186   1.521       .  S
C1183      C1188   1.414       .  A
C1183      C1192   1.401       .  A
C1184      F1200   1.382       .  S
C1184      F1201   1.382       .  S
C1184      F1202   1.384       .  S
C1186      F1197   1.383       .  S
C1186      F1198   1.385       .  S
C1186      F1199   1.382       .  S
C1188      C1189   1.408       .  A
C1188      C1193   1.520       .  S
C1189      C1190   1.409       .  A
C1189      H1194   1.083       .  S
C1190      C1191   1.425       .  A
C1191      C1192   1.409       .  A
C1191      C1195   1.520       .  S
C1192      H1196   1.083       .  S
C1193      F1206   1.385   1_655  S
C1193      F1207   1.382   1_655  S
C1193      F1208   1.381       .  S
C1195      F1203   1.385       .  S
C1195      F1204   1.383       .  S
C1195      F1205   1.383       .  S
C1209      C1210   1.397       .  A
C1209      C1214   1.404       .  A
C1209      H1219   1.083       .  S
C1210      C1215   1.474       .  S
C1210      C1211   1.411       .  A
C1211      C1212   1.404       .  A
C1211      C1216   1.521       .  S
C1212      C1213   1.409       .  A
C1212      H1217   1.083       .  S
C1213      C1214   1.425       .  A
C1214      C1218   1.521       .  S
C1215      C1220   1.413       .  A
C1215      C1224   1.399       .  A
C1216      F1232   1.382       .  S
C1216      F1233   1.382       .  S
C1216      F1234   1.384       .  S
C1218      F1229   1.383       .  S
C1218      F1230   1.385       .  S
C1218      F1231   1.383       .  S
C1220      C1221   1.402       .  A
C1220      C1225   1.520       .  S
C1221      C1222   1.405       .  A
C1221      H1226   1.083       .  S
C1222      C1223   1.420       .  A
C1223      C1224   1.403       .  A
C1223      C1227   1.520       .  S
C1224      H1228   1.084       .  S
C1225      F1238   1.385       .  S
C1225      F1239   1.382       .  S
C1225      F1240   1.382       .  S
C1227      F1235   1.385       .  S
C1227      F1236   1.383       .  S
C1227      F1237   1.383       .  S
C1241      C1242   1.403       .  A
C1241      C1246   1.406       .  A
C1241      H1251   1.083       .  S
C1242      C1247   1.482       .  S
C1242      C1243   1.416       .  A
C1243      C1244   1.405       .  A
C1243      C1248   1.518       .  S
C1244      C1245   1.400       .  A
C1244      H1249   1.083       .  S
C1245      C1246   1.413       .  A
C1246      C1250   1.518       .  S
C1247      C1252   1.415       .  A
C1247      C1256   1.403       .  A
C1248      F1264   1.382       .  S
C1248      F1265   1.383       .  S
C1248      F1266   1.384       .  S
C1250      F1261   1.383       .  S
C1250      F1262   1.384       .  S
C1250      F1263   1.384       .  S
C1252      C1253   1.399       .  A
C1252      C1257   1.523       .  S
C1253      C1254   1.405       .  A
C1253      H1258   1.083       .  S
C1254      C1255   1.419       .  A
C1255      C1256   1.412       .  A
C1255      C1259   1.515       .  S
C1256      H1260   1.083       .  S
C1257      F1270   1.385       .  S
C1257      F1271   1.382       .  S
C1257      F1272   1.383       .  S
C1259      F1267   1.381       .  S
C1259      F1268   1.382       .  S
C1259      F1269   1.385       .  S
C1273      C1274   1.397       .  A
C1273      C1278   1.405       .  A
C1273      H1283   1.083       .  S
C1274      C1279   1.478   1_565  S
C1274      C1275   1.410   1_565  A
C1275      C1276   1.404       .  A
C1275      C1280   1.520       .  S
C1276      C1277   1.413   1_545  A
C1276      H1281   1.082       .  S
C1277      C1278   1.427       .  A
C1278      C1282   1.519       .  S
C1279      C1284   1.412   1_545  A
C1279      C1288   1.401       .  A
C1280      F1296   1.382       .  S
C1280      F1297   1.382       .  S
C1280      F1298   1.385       .  S
C1282      F1293   1.385       .  S
C1282      F1294   1.381       .  S
C1282      F1295   1.384       .  S
C1284      C1285   1.404   1_565  A
C1284      C1289   1.520       .  S
C1285      C1286   1.408       .  A
C1285      H1290   1.082   1_545  S
C1286      C1287   1.421       .  A
C1287      C1288   1.406       .  A
C1287      C1291   1.520       .  S
C1288      H1292   1.082       .  S
C1289      F1302   1.384       .  S
C1289      F1303   1.382       .  S
C1289      F1304   1.382       .  S
C1291      F1299   1.385       .  S
C1291      F1300   1.383       .  S
C1291      F1301   1.383       .  S
C1305      C1306   1.396       .  A
C1305      C1310   1.404       .  A
C1305      H1315   1.084       .  S
C1306      C1311   1.475       .  S
C1306      C1307   1.413       .  A
C1307      C1308   1.401       .  A
C1307      C1312   1.520       .  S
C1308      C1309   1.405       .  A
C1308      H1313   1.083       .  S
C1309      C1310   1.427       .  A
C1310      C1314   1.521       .  S
C1311      C1316   1.413       .  A
C1311      C1320   1.398       .  A
C1312      F1328   1.382       .  S
C1312      F1329   1.383       .  S
C1312      F1330   1.385       .  S
C1314      F1325   1.382       .  S
C1314      F1326   1.385       .  S
C1314      F1327   1.383       .  S
C1316      C1317   1.400       .  A
C1316      C1321   1.523       .  S
C1317      C1318   1.408       .  A
C1317      H1322   1.082       .  S
C1318      C1319   1.425       .  A
C1319      C1320   1.407       .  A
C1319      C1323   1.519       .  S
C1320      H1324   1.082       .  S
C1321      F1334   1.385       .  S
C1321      F1335   1.382       .  S
C1321      F1336   1.383       .  S
C1323      F1331   1.383       .  S
C1323      F1332   1.383       .  S
C1323      F1333   1.385       .  S
C1337      C1338   1.402       .  A
C1337      C1342   1.411       .  A
C1337      H1347   1.083       .  S
C1338      C1343   1.487       .  S
C1338      C1339   1.413       .  A
C1339      C1340   1.407       .  A
C1339      C1344   1.520       .  S
C1340      C1341   1.406       .  A
C1340      H1345   1.081       .  S
C1341      C1342   1.420       .  A
C1342      C1346   1.517       .  S
C1343      C1348   1.412       .  A
C1343      C1352   1.402       .  A
C1344      F1360   1.382       .  S
C1344      F1361   1.382       .  S
C1344      F1362   1.383       .  S
C1346      F1357   1.381       .  S
C1346      F1358   1.385       .  S
C1346      F1359   1.383       .  S
C1348      C1349   1.403       .  A
C1348      C1353   1.524       .  S
C1349      C1350   1.415       .  A
C1349      H1354   1.081       .  S
C1350      C1351   1.425       .  A
C1351      C1352   1.414       .  A
C1351      C1355   1.516       .  S
C1352      H1356   1.083       .  S
C1353      F1366   1.385       .  S
C1353      F1367   1.382       .  S
C1353      F1368   1.382       .  S
C1355      F1363   1.384       .  S
C1355      F1364   1.381       .  S
C1355      F1365   1.384       .  S
C1369      C1370   1.398   1_565  A
C1369      C1374   1.405       .  A
C1369      H1379   1.083       .  S
C1370      C1375   1.479   1_545  S
C1370      C1371   1.413       .  A
C1371      C1372   1.404       .  A
C1371      C1376   1.520       .  S
C1372      C1373   1.407       .  A
C1372      H1377   1.083       .  S
C1373      C1374   1.427   1_545  A
C1374      C1378   1.522       .  S
C1375      C1380   1.413   1_565  A
C1375      C1384   1.400       .  A
C1376      F1392   1.382       .  S
C1376      F1393   1.383       .  S
C1376      F1394   1.384       .  S
C1378      F1389   1.384   1_565  S
C1378      F1390   1.385       .  S
C1378      F1391   1.383       .  S
C1380      C1381   1.405   1_545  A
C1380      C1385   1.520       .  S
C1381      C1382   1.407       .  A
C1381      H1386   1.083   1_565  S
C1382      C1383   1.419       .  A
C1383      C1384   1.405       .  A
C1383      C1387   1.516       .  S
C1384      H1388   1.083       .  S
C1385      F1398   1.384       .  S
C1385      F1399   1.382       .  S
C1385      F1400   1.382       .  S
C1387      F1395   1.382       .  S
C1387      F1396   1.383       .  S
C1387      F1397   1.385       .  S
C1401      C1402   1.399       .  A
C1401      C1406   1.405       .  A
C1401      H1411   1.083       .  S
C1402      C1407   1.483       .  S
C1402      C1403   1.411       .  A
C1403      C1404   1.408       .  A
C1403      C1408   1.519       .  S
C1404      C1405   1.413       .  A
C1404      H1409   1.082       .  S
C1405      C1406   1.430       .  A
C1406      C1410   1.522   1_565  S
C1407      C1412   1.421       .  A
C1407      C1416   1.403       .  A
C1408      F1424   1.381       .  S
C1408      F1425   1.383       .  S
C1408      F1426   1.384       .  S
C1410      F1421   1.383       .  S
C1410      F1422   1.385       .  S
C1410      F1423   1.383   1_545  S
C1412      C1413   1.406       .  A
C1412      C1417   1.517       .  S
C1413      C1414   1.400       .  A
C1413      H1418   1.084       .  S
C1414      C1415   1.414       .  A
C1415      C1416   1.401       .  A
C1415      C1419   1.517       .  S
C1416      H1420   1.084       .  S
C1417      F1430   1.383       .  S
C1417      F1431   1.384       .  S
C1417      F1432   1.382       .  S
C1419      F1427   1.382       .  S
C1419      F1428   1.384       .  S
C1419      F1429   1.385       .  S
C1433      C1434   1.399       .  A
C1433      C1438   1.406       .  A
C1433      H1443   1.083       .  S
C1434      C1439   1.479   1_655  S
C1434      C1435   1.413       .  A
C1435      C1436   1.403       .  A
C1435      C1440   1.518       .  S
C1436      C1437   1.404       .  A
C1436      H1441   1.083       .  S
C1437      C1438   1.421       .  A
C1438      C1442   1.519       .  S
C1439      C1444   1.417       .  A
C1439      C1448   1.401       .  A
C1440      F1456   1.383       .  S
C1440      F1457   1.383       .  S
C1440      F1458   1.385       .  S
C1442      F1453   1.383       .  S
C1442      F1454   1.385       .  S
C1442      F1455   1.383       .  S
C1444      C1445   1.401       .  A
C1444      C1449   1.522   1_455  S
C1445      C1446   1.401       .  A
C1445      H1450   1.083       .  S
C1446      C1447   1.419       .  A
C1447      C1448   1.408       .  A
C1447      C1451   1.519       .  S
C1448      H1452   1.083       .  S
C1449      F1462   1.385   1_655  S
C1449      F1463   1.382       .  S
C1449      F1464   1.382       .  S
C1451      F1459   1.383       .  S
C1451      F1460   1.382       .  S
C1451      F1461   1.384       .  S
C1465      C1466   1.402       .  A
C1465      C1470   1.409       .  A
C1465      H1475   1.083       .  S
C1466      C1471   1.480       .  S
C1466      C1467   1.412       .  A
C1467      C1468   1.401       .  A
C1467      C1472   1.520       .  S
C1468      C1469   1.406       .  A
C1468      H1473   1.083       .  S
C1469      C1470   1.421       .  A
C1470      C1474   1.519       .  S
C1471      C1476   1.411       .  A
C1471      C1480   1.397       .  A
C1472      F1488   1.382       .  S
C1472      F1489   1.381       .  S
C1472      F1490   1.385       .  S
C1474      F1485   1.382       .  S
C1474      F1486   1.385       .  S
C1474      F1487   1.383       .  S
C1476      C1477   1.406       .  A
C1476      C1481   1.520       .  S
C1477      C1478   1.411       .  A
C1477      H1482   1.082       .  S
C1478      C1479   1.429       .  A
C1479      C1480   1.407       .  A
C1479      C1483   1.522       .  S
C1480      H1484   1.083       .  S
C1481      F1494   1.384       .  S
C1481      F1495   1.383       .  S
C1481      F1496   1.382       .  S
C1483      F1491   1.383       .  S
C1483      F1492   1.383       .  S
C1483      F1493   1.385       .  S
C1497      C1498   1.402       .  A
C1497      C1502   1.408       .  A
C1497      H1507   1.083       .  S
C1498      C1503   1.477       .  S
C1498      C1499   1.416       .  A
C1499      C1500   1.399       .  A
C1499      C1504   1.521       .  S
C1500      C1501   1.401       .  A
C1500      H1505   1.084       .  S
C1501      C1502   1.416       .  A
C1502      C1506   1.516       .  S
C1503      C1508   1.417       .  A
C1503      C1512   1.403       .  A
C1504      F1520   1.382       .  S
C1504      F1521   1.382       .  S
C1504      F1522   1.385       .  S
C1506      F1517   1.384       .  S
C1506      F1518   1.383       .  S
C1506      F1519   1.383       .  S
C1508      C1509   1.399       .  A
C1508      C1513   1.521       .  S
C1509      C1510   1.398       .  A
C1509      H1514   1.084       .  S
C1510      C1511   1.414       .  A
C1511      C1512   1.407       .  A
C1511      C1515   1.518       .  S
C1512      H1516   1.083       .  S
C1513      F1526   1.385       .  S
C1513      F1527   1.382       .  S
C1513      F1528   1.383       .  S
C1515      F1523   1.384       .  S
C1515      F1524   1.383       .  S
C1515      F1525   1.383       .  S
C1529      C1530   1.400       .  A
C1529      C1534   1.399   1_655  A
C1529      H1539   1.084       .  S
C1530      C1535   1.478       .  S
C1530      C1531   1.414       .  A
C1531      C1532   1.409   1_655  A
C1531      C1536   1.517       .  S
C1532      C1533   1.406       .  A
C1532      H1537   1.082       .  S
C1533      C1534   1.420       .  A
C1534      C1538   1.523       .  S
C1535      C1540   1.417       .  A
C1535      C1544   1.400       .  A
C1536      F1552   1.382       .  S
C1536      F1553   1.382       .  S
C1536      F1554   1.384   1_655  S
C1538      F1549   1.385   1_455  S
C1538      F1550   1.382       .  S
C1538      F1551   1.384       .  S
C1540      C1541   1.405       .  A
C1540      C1545   1.519       .  S
C1541      C1542   1.402       .  A
C1541      H1546   1.083       .  S
C1542      C1543   1.418       .  A
C1543      C1544   1.401       .  A
C1543      C1547   1.517       .  S
C1544      H1548   1.084       .  S
C1545      F1558   1.385       .  S
C1545      F1559   1.382       .  S
C1545      F1560   1.382       .  S
C1547      F1555   1.384       .  S
C1547      F1556   1.383   1_545  S
C1547      F1557   1.384   1_545  S
C1561      C1562   1.405       .  A
C1561      C1566   1.414       .  A
C1561      H1571   1.083       .  S
C1562      C1567   1.484   1_545  S
C1562      C1563   1.417       .  A
C1563      C1564   1.402       .  A
C1563      C1568   1.524       .  S
C1564      C1565   1.403       .  A
C1564      H1569   1.084       .  S
C1565      C1566   1.417       .  A
C1566      C1570   1.517       .  S
C1567      C1572   1.415       .  A
C1567      C1576   1.399       .  A
C1568      F1584   1.382   1_545  S
C1568      F1585   1.381   1_545  S
C1568      F1586   1.384       .  S
C1570      F1581   1.382       .  S
C1570      F1582   1.384       .  S
C1570      F1583   1.383       .  S
C1572      C1573   1.413       .  A
C1572      C1577   1.517       .  S
C1573      C1574   1.406       .  A
C1573      H1578   1.082       .  S
C1574      C1575   1.416       .  A
C1575      C1576   1.401       .  A
C1575      C1579   1.513       .  S
C1576      H1580   1.083       .  S
C1577      F1590   1.384       .  S
C1577      F1591   1.383   1_565  S
C1577      F1592   1.382   1_565  S
C1579      F1587   1.384       .  S
C1579      F1588   1.383       .  S
C1579      F1589   1.383       .  S
C1593      C1594   1.397       .  A
C1593      C1598   1.400       .  A
C1593      H1603   1.084   1_655  S
C1594      C1599   1.479       .  S
C1594      C1595   1.416       .  A
C1595      C1596   1.410       .  A
C1595      C1600   1.518       .  S
C1596      C1597   1.405       .  A
C1596      H1601   1.083       .  S
C1597      C1598   1.420       .  A
C1598      C1602   1.518   1_655  S
C1599      C1604   1.417       .  A
C1599      C1608   1.398       .  A
C1600      F1616   1.382       .  S
C1600      F1617   1.381       .  S
C1600      F1618   1.385       .  S
C1602      F1613   1.382       .  S
C1602      F1614   1.385       .  S
C1602      F1615   1.384   1_455  S
C1604      C1605   1.410   1_655  A
C1604      C1609   1.519   1_655  S
C1605      C1606   1.403   1_455  A
C1605      H1610   1.083       .  S
C1606      C1607   1.416       .  A
C1607      C1608   1.400       .  A
C1607      C1611   1.515       .  S
C1608      H1612   1.083       .  S
C1609      F1622   1.384       .  S
C1609      F1623   1.382       .  S
C1609      F1624   1.382   1_455  S
C1611      F1619   1.385       .  S
C1611      F1620   1.383       .  S
C1611      F1621   1.381       .  S
C1625      C1626   1.400       .  A
C1625      C1630   1.407       .  A
C1625      H1635   1.083       .  S
C1626      C1631   1.474       .  S
C1626      C1627   1.416       .  A
C1627      C1628   1.401       .  A
C1627      C1632   1.523       .  S
C1628      C1629   1.402       .  A
C1628      H1633   1.082       .  S
C1629      C1630   1.420       .  A
C1630      C1634   1.518       .  S
C1631      C1636   1.411       .  A
C1631      C1640   1.397       .  A
C1632      F1648   1.382       .  S
C1632      F1649   1.380       .  S
C1632      F1650   1.384       .  S
C1634      F1645   1.385       .  S
C1634      F1646   1.383       .  S
C1634      F1647   1.382       .  S
C1636      C1637   1.407       .  A
C1636      C1641   1.517       .  S
C1637      C1638   1.406       .  A
C1637      H1642   1.083       .  S
C1638      C1639   1.421       .  A
C1639      C1640   1.398       .  A
C1639      C1643   1.523       .  S
C1640      H1644   1.084       .  S
C1641      F1654   1.385       .  S
C1641      F1655   1.382       .  S
C1641      F1656   1.381       .  S
C1643      F1651   1.381   1_545  S
C1643      F1652   1.384       .  S
C1643      F1653   1.385       .  S
C1657      C1658   1.402       .  A
C1657      C1662   1.402   1_455  A
C1657      H1667   1.083       .  S
C1658      C1663   1.479       .  S
C1658      C1659   1.415       .  A
C1659      C1660   1.405       .  A
C1659      C1664   1.519       .  S
C1660      C1661   1.405       .  A
C1660      H1665   1.083       .  S
C1661      C1662   1.415   1_455  A
C1662      C1666   1.519       .  S
C1663      C1668   1.414       .  A
C1663      C1672   1.399       .  A
C1664      F1680   1.381       .  S
C1664      F1681   1.382       .  S
C1664      F1682   1.385       .  S
C1666      F1677   1.385       .  S
C1666      F1678   1.381       .  S
C1666      F1679   1.383       .  S
C1668      C1669   1.408       .  A
C1668      C1673   1.519       .  S
C1669      C1670   1.409       .  A
C1669      H1674   1.083       .  S
C1670      C1671   1.422       .  A
C1671      C1672   1.400       .  A
C1671      C1675   1.520       .  S
C1672      H1676   1.084       .  S
C1673      F1686   1.384       .  S
C1673      F1687   1.382       .  S
C1673      F1688   1.383       .  S
C1675      F1683   1.384       .  S
C1675      F1684   1.383       .  S
C1675      F1685   1.385       .  S
C1689      C1690   1.400   1_545  A
C1689      C1694   1.412       .  A
C1689      H1699   1.083   1_545  S
C1690      C1695   1.479       .  S
C1690      C1691   1.413   1_565  A
C1691      C1692   1.399       .  A
C1691      C1696   1.524   1_545  S
C1692      C1693   1.408       .  A
C1692      H1697   1.083       .  S
C1693      C1694   1.426       .  A
C1694      C1698   1.519       .  S
C1695      C1700   1.417       .  A
C1695      C1704   1.400       .  A
C1696      F1712   1.382       .  S
C1696      F1713   1.382       .  S
C1696      F1714   1.384   1_565  S
C1698      F1709   1.382       .  S
C1698      F1710   1.385       .  S
C1698      F1711   1.384       .  S
C1700      C1701   1.406       .  A
C1700      C1705   1.520       .  S
C1701      C1702   1.401       .  A
C1701      H1706   1.083       .  S
C1702      C1703   1.414       .  A
C1703      C1704   1.404       .  A
C1703      C1707   1.517       .  S
C1704      H1708   1.083       .  S
C1705      F1718   1.385       .  S
C1705      F1719   1.383       .  S
C1705      F1720   1.383       .  S
C1707      F1715   1.384       .  S
C1707      F1716   1.383       .  S
C1707      F1717   1.382       .  S
C1721      C1722   1.402       .  A
C1721      C1726   1.406       .  A
C1721      H1731   1.084       .  S
C1722      C1727   1.485       .  S
C1722      C1723   1.414       .  A
C1723      C1724   1.408       .  A
C1723      C1728   1.517       .  S
C1724      C1725   1.408       .  A
C1724      H1729   1.084       .  S
C1725      C1726   1.422       .  A
C1726      C1730   1.518       .  S
C1727      C1732   1.419       .  A
C1727      C1736   1.403       .  A
C1728      F1744   1.382       .  S
C1728      F1745   1.383       .  S
C1728      F1746   1.385       .  S
C1730      F1741   1.382       .  S
C1730      F1742   1.385       .  S
C1730      F1743   1.383       .  S
C1732      C1733   1.407       .  A
C1732      C1737   1.517       .  S
C1733      C1734   1.400       .  A
C1733      H1738   1.080       .  S
C1734      C1735   1.415       .  A
C1735      C1736   1.405       .  A
C1735      C1739   1.518       .  S
C1736      H1740   1.083       .  S
C1737      F1750   1.384       .  S
C1737      F1751   1.383       .  S
C1737      F1752   1.382       .  S
C1739      F1747   1.382       .  S
C1739      F1748   1.382       .  S
C1739      F1749   1.385       .  S
C1753      C1754   1.401       .  A
C1753      C1758   1.412       .  A
C1753      H1763   1.082       .  S
C1754      C1759   1.487       .  S
C1754      C1755   1.416       .  A
C1755      C1756   1.404       .  A
C1755      C1760   1.522       .  S
C1756      C1757   1.407       .  A
C1756      H1761   1.082       .  S
C1757      C1758   1.424       .  A
C1758      C1762   1.516       .  S
C1759      C1764   1.417       .  A
C1759      C1768   1.403       .  A
C1760      F1776   1.382       .  S
C1760      F1777   1.382       .  S
C1760      F1778   1.385       .  S
C1762      F1773   1.383       .  S
C1762      F1774   1.385       .  S
C1762      F1775   1.383       .  S
C1764      C1765   1.406       .  A
C1764      C1769   1.518       .  S
C1765      C1766   1.401       .  A
C1765      H1770   1.083       .  S
C1766      C1767   1.415       .  A
C1767      C1768   1.409       .  A
C1767      C1771   1.516       .  S
C1768      H1772   1.083       .  S
C1769      F1782   1.384       .  S
C1769      F1783   1.382       .  S
C1769      F1784   1.383       .  S
C1771      F1779   1.384       .  S
C1771      F1780   1.383       .  S
C1771      F1781   1.382       .  S
C1785      C1786   1.398       .  A
C1785      C1790   1.401       .  A
C1785      H1795   1.083       .  S
C1786      C1791   1.473       .  S
C1786      C1787   1.414       .  A
C1787      C1788   1.404       .  A
C1787      C1792   1.520       .  S
C1788      C1789   1.404       .  A
C1788      H1793   1.083       .  S
C1789      C1790   1.418       .  A
C1790      C1794   1.515       .  S
C1791      C1796   1.413       .  A
C1791      C1800   1.399       .  A
C1792      F1808   1.383       .  S
C1792      F1809   1.381       .  S
C1792      F1810   1.385       .  S
C1794      F1805   1.381       .  S
C1794      F1806   1.385       .  S
C1794      F1807   1.381       .  S
C1796      C1797   1.402       .  A
C1796      C1801   1.523       .  S
C1797      C1798   1.408       .  A
C1797      H1802   1.082       .  S
C1798      C1799   1.423       .  A
C1799      C1800   1.405       .  A
C1799      C1803   1.521       .  S
C1800      H1804   1.083       .  S
C1801      F1814   1.384       .  S
C1801      F1815   1.383       .  S
C1801      F1816   1.380       .  S
C1803      F1811   1.385       .  S
C1803      F1812   1.384       .  S
C1803      F1813   1.379       .  S
C1817      C1818   1.401       .  A
C1817      C1822   1.406       .  A
C1817      H1827   1.079       .  S
C1818      C1823   1.486       .  S
C1818      C1819   1.413       .  A
C1819      C1820   1.410       .  A
C1819      C1824   1.518       .  S
C1820      C1821   1.409       .  A
C1820      H1825   1.074       .  S
C1821      C1822   1.421       .  A
C1822      C1826   1.517       .  S
C1823      C1828   1.412       .  A
C1823      C1832   1.401       .  A
C1824      F1840   1.383       .  S
C1824      F1841   1.382       .  S
C1824      F1842   1.385       .  S
C1826      F1837   1.382       .  S
C1826      F1838   1.385       .  S
C1826      F1839   1.383       .  S
C1828      C1829   1.402       .  A
C1828      C1833   1.524       .  S
C1829      C1830   1.413       .  A
C1829      H1834   1.078       .  S
C1830      C1831   1.429       .  A
C1831      C1832   1.415       .  A
C1831      C1835   1.519       .  S
C1832      H1836   1.082       .  S
C1833      F1846   1.384       .  S
C1833      F1847   1.382       .  S
C1833      F1848   1.380       .  S
C1835      F1843   1.384       .  S
C1835      F1844   1.383       .  S
C1835      F1845   1.385       .  S
C1849      C1850   1.404       .  A
C1849      C1854   1.403       .  A
C1849      H1859   1.084       .  S
C1850      C1855   1.476       .  S
C1850      C1851   1.413   1_554  A
C1851      C1852   1.404   1_556  A
C1851      C1856   1.517       .  S
C1852      C1853   1.402       .  A
C1852      H1857   1.084   1_554  S
C1853      C1854   1.413       .  A
C1854      C1858   1.520       .  S
C1855      C1860   1.413       .  A
C1855      C1864   1.401       .  A
C1856      F1872   1.382       .  S
C1856      F1873   1.383       .  S
C1856      F1874   1.385       .  S
C1858      F1869   1.385       .  S
C1858      F1870   1.382       .  S
C1858      F1871   1.383       .  S
C1860      C1861   1.403       .  A
C1860      C1865   1.516   1_554  S
C1861      C1862   1.407       .  A
C1861      H1866   1.084       .  S
C1862      C1863   1.422       .  A
C1863      C1864   1.402       .  A
C1863      C1867   1.520       .  S
C1864      H1868   1.084       .  S
C1865      F1878   1.384       .  S
C1865      F1879   1.382   1_556  S
C1865      F1880   1.383       .  S
C1867      F1875   1.385       .  S
C1867      F1876   1.383       .  S
C1867      F1877   1.384       .  S
C1881      C1882   1.402       .  A
C1881      C1886   1.404       .  A
C1881      H1891   1.083       .  S
C1882      C1887   1.481       .  S
C1882      C1883   1.420       .  A
C1883      C1884   1.407       .  A
C1883      C1888   1.519       .  S
C1884      C1885   1.400       .  A
C1884      H1889   1.084       .  S
C1885      C1886   1.415       .  A
C1886      C1890   1.518       .  S
C1887      C1892   1.414       .  A
C1887      C1896   1.403       .  A
C1888      F1904   1.383       .  S
C1888      F1905   1.381       .  S
C1888      F1906   1.383       .  S
C1890      F1901   1.381       .  S
C1890      F1902   1.384       .  S
C1890      F1903   1.383       .  S
C1892      C1893   1.402       .  A
C1892      C1897   1.521       .  S
C1893      C1894   1.406       .  A
C1893      H1898   1.083       .  S
C1894      C1895   1.421       .  A
C1895      C1896   1.411       .  A
C1895      C1899   1.518   1_455  S
C1896      H1900   1.083       .  S
C1897      F1910   1.384       .  S
C1897      F1911   1.383       .  S
C1897      F1912   1.381       .  S
C1899      F1907   1.384       .  S
C1899      F1908   1.382       .  S
C1899      F1909   1.385       .  S
C1913      C1914   1.401       .  A
C1913      C1918   1.411       .  A
C1913      H1923   1.083       .  S
C1914      C1919   1.487       .  S
C1914      C1915   1.417       .  A
C1915      C1916   1.407       .  A
C1915      C1920   1.523       .  S
C1916      C1917   1.407       .  A
C1916      H1921   1.083       .  S
C1917      C1918   1.423       .  A
C1918      C1922   1.519       .  S
C1919      C1924   1.416       .  A
C1919      C1928   1.400       .  A
C1920      F1936   1.382       .  S
C1920      F1937   1.381       .  S
C1920      F1938   1.385       .  S
C1922      F1933   1.385       .  S
C1922      F1934   1.383       .  S
C1922      F1935   1.383       .  S
C1924      C1925   1.413       .  A
C1924      C1929   1.516       .  S
C1925      C1926   1.405       .  A
C1925      H1930   1.083       .  S
C1926      C1927   1.419       .  A
C1927      C1928   1.403       .  A
C1927      C1931   1.521       .  S
C1928      H1932   1.084       .  S
C1929      F1942   1.384       .  S
C1929      F1943   1.382       .  S
C1929      F1944   1.382       .  S
C1931      F1939   1.384       .  S
C1931      F1940   1.383       .  S
C1931      F1941   1.382       .  S
C1945      C1946   1.399       .  A
C1945      C1950   1.399       .  A
C1945      H1955   1.085       .  S
C1946      C1951   1.479       .  S
C1946      C1947   1.414       .  A
C1947      C1948   1.409       .  A
C1947      C1952   1.517       .  S
C1948      C1949   1.406       .  A
C1948      H1953   1.083       .  S
C1949      C1950   1.421       .  A
C1950      C1954   1.519       .  S
C1951      C1956   1.416       .  A
C1951      C1960   1.400       .  A
C1952      F1968   1.382       .  S
C1952      F1969   1.383       .  S
C1952      F1970   1.384       .  S
C1954      F1965   1.385       .  S
C1954      F1966   1.383       .  S
C1954      F1967   1.381       .  S
C1956      C1957   1.406       .  A
C1956      C1961   1.516       .  S
C1957      C1958   1.406       .  A
C1957      H1962   1.084       .  S
C1958      C1959   1.420       .  A
C1959      C1960   1.401       .  A
C1959      C1963   1.519       .  S
C1960      H1964   1.083       .  S
C1961      F1974   1.384       .  S
C1961      F1975   1.383       .  S
C1961      F1976   1.383       .  S
C1963      F1971   1.383       .  S
C1963      F1972   1.383       .  S
C1963      F1973   1.384       .  S
C1977      C1978   1.400       .  A
C1977      C1982   1.404       .  A
C1977      H1987   1.084       .  S
C1978      C1983   1.481       .  S
C1978      C1979   1.412       .  A
C1979      C1980   1.408       .  A
C1979      C1984   1.517       .  S
C1980      C1981   1.409       .  A
C1980      H1985   1.083       .  S
C1981      C1982   1.422       .  A
C1982      C1986   1.519       .  S
C1983      C1988   1.417       .  A
C1983      C1992   1.404       .  A
C1984      F2000   1.383       .  S
C1984      F2001   1.382       .  S
C1984      F2002   1.384       .  S
C1986      F1997   1.383       .  S
C1986      F1998   1.385       .  S
C1986      F1999   1.383       .  S
C1988      C1989   1.401       .  A
C1988      C1993   1.523       .  S
C1989      C1990   1.402       .  A
C1989      H1994   1.084       .  S
C1990      C1991   1.414       .  A
C1991      C1992   1.411       .  A
C1991      C1995   1.516       .  S
C1992      H1996   1.083       .  S
C1993      F2006   1.385       .  S
C1993      F2007   1.382       .  S
C1993      F2008   1.382       .  S
C1995      F2003   1.384       .  S
C1995      F2004   1.384       .  S
C1995      F2005   1.383       .  S
C2009      C2010   1.399       .  A
C2009      C2014   1.400       .  A
C2009      H2019   1.084       .  S
C2010      C2015   1.478       .  S
C2010      C2011   1.413       .  A
C2011      C2012   1.408       .  A
C2011      C2016   1.516       .  S
C2012      C2013   1.407       .  A
C2012      H2017   1.083       .  S
C2013      C2014   1.422       .  A
C2014      C2018   1.522       .  S
C2015      C2020   1.416       .  A
C2015      C2024   1.403       .  A
C2016      F2032   1.381       .  S
C2016      F2033   1.383       .  S
C2016      F2034   1.385       .  S
C2018      F2029   1.385       .  S
C2018      F2030   1.383       .  S
C2018      F2031   1.383       .  S
C2020      C2021   1.404       .  A
C2020      C2025   1.516       .  S
C2021      C2022   1.401       .  A
C2021      H2026   1.082       .  S
C2022      C2023   1.413       .  A
C2023      C2024   1.403       .  A
C2023      C2027   1.517       .  S
C2024      H2028   1.083       .  S
C2025      F2038   1.384       .  S
C2025      F2039   1.383       .  S
C2025      F2040   1.383       .  S
C2027      F2035   1.381       .  S
C2027      F2036   1.383       .  S
C2027      F2037   1.385       .  S
C2041      C2042   1.404       .  A
C2041      C2046   1.414       .  A
C2041      H2051   1.083       .  S
C2042      C2047   1.487       .  S
C2042      C2043   1.417       .  A
C2043      C2044   1.404       .  A
C2043      C2048   1.522       .  S
C2044      C2045   1.403       .  A
C2044      H2049   1.082       .  S
C2045      C2046   1.420       .  A
C2046      C2050   1.518       .  S
C2047      C2052   1.416       .  A
C2047      C2056   1.401       .  A
C2048      F2064   1.382       .  S
C2048      F2065   1.382       .  S
C2048      F2066   1.384       .  S
C2050      F2061   1.382       .  S
C2050      F2062   1.385       .  S
C2050      F2063   1.383       .  S
C2052      C2053   1.411       .  A
C2052      C2057   1.516       .  S
C2053      C2054   1.405       .  A
C2053      H2058   1.084       .  S
C2054      C2055   1.418       .  A
C2055      C2056   1.403       .  A
C2055      C2059   1.517       .  S
C2056      H2060   1.085       .  S
C2057      F2070   1.385       .  S
C2057      F2071   1.383       .  S
C2057      F2072   1.382       .  S
C2059      F2067   1.384       .  S
C2059      F2068   1.384       .  S
C2059      F2069   1.383       .  S
C2073      C2074   1.402       .  A
C2073      C2078   1.406       .  A
C2073      H2083   1.083       .  S
C2074      C2079   1.489       .  S
C2074      C2075   1.419       .  A
C2075      C2076   1.409       .  A
C2075      C2080   1.520       .  S
C2076      C2077   1.404       .  A
C2076      H2081   1.083       .  S
C2077      C2078   1.417       .  A
C2078      C2082   1.518       .  S
C2079      C2084   1.415       .  A
C2079      C2088   1.399       .  A
C2080      F2096   1.381       .  S
C2080      F2097   1.382       .  S
C2080      F2098   1.385       .  S
C2082      F2093   1.384       .  S
C2082      F2094   1.385       .  S
C2082      F2095   1.382       .  S
C2084      C2085   1.411       .  A
C2084      C2089   1.518       .  S
C2085      C2086   1.410       .  A
C2085      H2090   1.083       .  S
C2086      C2087   1.428       .  A
C2087      C2088   1.406       .  A
C2087      C2091   1.523       .  S
C2088      H2092   1.083       .  S
C2089      F2102   1.384   1_565  S
C2089      F2103   1.382       .  S
C2089      F2104   1.382       .  S
C2091      F2099   1.383       .  S
C2091      F2100   1.384       .  S
C2091      F2101   1.385       .  S
C2105      C2106   1.401       .  A
C2105      C2110   1.409       .  A
C2105      H2115   1.083       .  S
C2106      C2111   1.484       .  S
C2106      C2107   1.415       .  A
C2107      C2108   1.404       .  A
C2107      C2112   1.521       .  S
C2108      C2109   1.406       .  A
C2108      H2113   1.083       .  S
C2109      C2110   1.421       .  A
C2110      C2114   1.518       .  S
C2111      C2116   1.417       .  A
C2111      C2120   1.403   1_554  A
C2112      F2128   1.382   1_554  S
C2112      F2129   1.383       .  S
C2112      F2130   1.385       .  S
C2114      F2125   1.382       .  S
C2114      F2126   1.385       .  S
C2114      F2127   1.383   1_554  S
C2116      C2117   1.403       .  A
C2116      C2121   1.521       .  S
C2117      C2118   1.400       .  A
C2117      H2122   1.084       .  S
C2118      C2119   1.417       .  A
C2119      C2120   1.407   1_554  A
C2119      C2123   1.517   1_554  S
C2120      H2124   1.084       .  S
C2121      F2134   1.385       .  S
C2121      F2135   1.382       .  S
C2121      F2136   1.383       .  S
C2123      F2131   1.384       .  S
C2123      F2132   1.381       .  S
C2123      F2133   1.383       .  S
C2137      C2138   1.403       .  A
C2137      C2142   1.412       .  A
C2137      H2147   1.083       .  S
C2138      C2143   1.478       .  S
C2138      C2139   1.416       .  A
C2139      C2140   1.397       .  A
C2139      C2144   1.524       .  S
C2140      C2141   1.403       .  A
C2140      H2145   1.083       .  S
C2141      C2142   1.420       .  A
C2142      C2146   1.517       .  S
C2143      C2148   1.415       .  A
C2143      C2152   1.404       .  A
C2144      F2160   1.381       .  S
C2144      F2161   1.382       .  S
C2144      F2162   1.385       .  S
C2146      F2157   1.385       .  S
C2146      F2158   1.382       .  S
C2146      F2159   1.383       .  S
C2148      C2149   1.402       .  A
C2148      C2153   1.519       .  S
C2149      C2150   1.399       .  A
C2149      H2154   1.082       .  S
C2150      C2151   1.412       .  A
C2151      C2152   1.406       .  A
C2151      C2155   1.517       .  S
C2152      H2156   1.083       .  S
C2153      F2166   1.385       .  S
C2153      F2167   1.382       .  S
C2153      F2168   1.383       .  S
C2155      F2163   1.385       .  S
C2155      F2164   1.383       .  S
C2155      F2165   1.382       .  S
C2169      C2170   1.400       .  A
C2169      C2174   1.409       .  A
C2169      H2179   1.084       .  S
C2170      C2175   1.487       .  S
C2170      C2171   1.414       .  A
C2171      C2172   1.406       .  A
C2171      C2176   1.517       .  S
C2172      C2173   1.411       .  A
C2172      H2177   1.084       .  S
C2173      C2174   1.432       .  A
C2174      C2178   1.524       .  S
C2175      C2180   1.416       .  A
C2175      C2184   1.400       .  A
C2176      F2192   1.383       .  S
C2176      F2193   1.382       .  S
C2176      F2194   1.384       .  S
C2178      F2189   1.385       .  S
C2178      F2190   1.384       .  S
C2178      F2191   1.381       .  S
C2180      C2181   1.413       .  A
C2180      C2185   1.516       .  S
C2181      C2182   1.407       .  A
C2181      H2186   1.083       .  S
C2182      C2183   1.418       .  A
C2183      C2184   1.401       .  A
C2183      C2187   1.515       .  S
C2184      H2188   1.084       .  S
C2185      F2198   1.385       .  S
C2185      F2199   1.382       .  S
C2185      F2200   1.384       .  S
C2187      F2195   1.383       .  S
C2187      F2196   1.382       .  S
C2187      F2197   1.384       .  S
C2201      C2202   1.401       .  A
C2201      C2206   1.406       .  A
C2201      H2211   1.085   1_554  S
C2202      C2207   1.480       .  S
C2202      C2203   1.416       .  A
C2203      C2204   1.402       .  A
C2203      C2208   1.522       .  S
C2204      C2205   1.402       .  A
C2204      H2209   1.084       .  S
C2205      C2206   1.419       .  A
C2206      C2210   1.520   1_554  S
C2207      C2212   1.412       .  A
C2207      C2216   1.398       .  A
C2208      F2224   1.382       .  S
C2208      F2225   1.382       .  S
C2208      F2226   1.385       .  S
C2210      F2221   1.384       .  S
C2210      F2222   1.383       .  S
C2210      F2223   1.380       .  S
C2212      C2213   1.404       .  A
C2212      C2217   1.520       .  S
C2213      C2214   1.410       .  A
C2213      H2218   1.083       .  S
C2214      C2215   1.427       .  A
C2215      C2216   1.408       .  A
C2215      C2219   1.519       .  S
C2216      H2220   1.083       .  S
C2217      F2230   1.385       .  S
C2217      F2231   1.382       .  S
C2217      F2232   1.383       .  S
C2219      F2227   1.385   1_554  S
C2219      F2228   1.383   1_554  S
C2219      F2229   1.383       .  S
C2233      C2234   1.403       .  A
C2233      C2238   1.413       .  A
C2233      H2243   1.083       .  S
C2234      C2239   1.492       .  S
C2234      C2235   1.414       .  A
C2235      C2236   1.409       .  A
C2235      C2240   1.520       .  S
C2236      C2237   1.409       .  A
C2236      H2241   1.083       .  S
C2237      C2238   1.423       .  A
C2238      C2242   1.519       .  S
C2239      C2244   1.414       .  A
C2239      C2248   1.403       .  A
C2240      F2256   1.382       .  S
C2240      F2257   1.381       .  S
C2240      F2258   1.384       .  S
C2242      F2253   1.382       .  S
C2242      F2254   1.385       .  S
C2242      F2255   1.384       .  S
C2244      C2245   1.408       .  A
C2244      C2249   1.520       .  S
C2245      C2246   1.410       .  A
C2245      H2250   1.082       .  S
C2246      C2247   1.424       .  A
C2247      C2248   1.413       .  A
C2247      C2251   1.520       .  S
C2248      H2252   1.083       .  S
C2249      F2262   1.385       .  S
C2249      F2263   1.382       .  S
C2249      F2264   1.381       .  S
C2251      F2259   1.385       .  S
C2251      F2260   1.383       .  S
C2251      F2261   1.383       .  S
C2265      C2266   1.403       .  A
C2265      C2270   1.411       .  A
C2265      H2275   1.083       .  S
C2266      C2271   1.486       .  S
C2266      C2267   1.416       .  A
C2267      C2268   1.405       .  A
C2267      C2272   1.521       .  S
C2268      C2269   1.404       .  A
C2268      H2273   1.084       .  S
C2269      C2270   1.420       .  A
C2270      C2274   1.519       .  S
C2271      C2276   1.415       .  A
C2271      C2280   1.406       .  A
C2272      F2288   1.382       .  S
C2272      F2289   1.382       .  S
C2272      F2290   1.384       .  S
C2274      F2285   1.384       .  S
C2274      F2286   1.384       .  S
C2274      F2287   1.383   1_565  S
C2276      C2277   1.405       .  A
C2276      C2281   1.521       .  S
C2277      C2278   1.402       .  A
C2277      H2282   1.084       .  S
C2278      C2279   1.413       .  A
C2279      C2280   1.412       .  A
C2279      C2283   1.515       .  S
C2280      H2284   1.083       .  S
C2281      F2294   1.384       .  S
C2281      F2295   1.383       .  S
C2281      F2296   1.382       .  S
C2283      F2291   1.384       .  S
C2283      F2292   1.383       .  S
C2283      F2293   1.383       .  S
C2297      C2298   1.398       .  A
C2297      C2302   1.406       .  A
C2297      H2307   1.083       .  S
C2298      C2303   1.481       .  S
C2298      C2299   1.414       .  A
C2299      C2300   1.405       .  A
C2299      C2304   1.520       .  S
C2300      C2301   1.407       .  A
C2300      H2305   1.083       .  S
C2301      C2302   1.426       .  A
C2302      C2306   1.521       .  S
C2303      C2308   1.413       .  A
C2303      C2312   1.398       .  A
C2304      F2320   1.382       .  S
C2304      F2321   1.383       .  S
C2304      F2322   1.385       .  S
C2306      F2317   1.385       .  S
C2306      F2318   1.383       .  S
C2306      F2319   1.383       .  S
C2308      C2309   1.406       .  A
C2308      C2313   1.520       .  S
C2309      C2310   1.408       .  A
C2309      H2314   1.082       .  S
C2310      C2311   1.427       .  A
C2311      C2312   1.406       .  A
C2311      C2315   1.522       .  S
C2312      H2316   1.083       .  S
C2313      F2326   1.384       .  S
C2313      F2327   1.382       .  S
C2313      F2328   1.383       .  S
C2315      F2323   1.383       .  S
C2315      F2324   1.384       .  S
C2315      F2325   1.385       .  S
C2329      C2330   1.400       .  A
C2329      C2334   1.408       .  A
C2329      H2339   1.083       .  S
C2330      C2335   1.487       .  S
C2330      C2331   1.415       .  A
C2331      C2332   1.408       .  A
C2331      C2336   1.517       .  S
C2332      C2333   1.405       .  A
C2332      H2337   1.083       .  S
C2333      C2334   1.420       .  A
C2334      C2338   1.517       .  S
C2335      C2340   1.416       .  A
C2335      C2344   1.404       .  A
C2336      F2352   1.383       .  S
C2336      F2353   1.383       .  S
C2336      F2354   1.385       .  S
C2338      F2349   1.381       .  S
C2338      F2350   1.385       .  S
C2338      F2351   1.382       .  S
C2340      C2341   1.400       .  A
C2340      C2345   1.524       .  S
C2341      C2342   1.405       .  A
C2341      H2346   1.082       .  S
C2342      C2343   1.424       .  A
C2343      C2344   1.416       .  A
C2343      C2347   1.518       .  S
C2344      H2348   1.083       .  S
C2345      F2358   1.384       .  S
C2345      F2359   1.382       .  S
C2345      F2360   1.382       .  S
C2347      F2355   1.385       .  S
C2347      F2356   1.383       .  S
C2347      F2357   1.382       .  S
C2361      C2362   1.403       .  A
C2361      C2366   1.407       .  A
C2361      H2371   1.083       .  S
C2362      C2367   1.484       .  S
C2362      C2363   1.416       .  A
C2363      C2364   1.407       .  A
C2363      C2368   1.519       .  S
C2364      C2365   1.403       .  A
C2364      H2369   1.083       .  S
C2365      C2366   1.415       .  A
C2366      C2370   1.519       .  S
C2367      C2372   1.411       .  A
C2367      C2376   1.401       .  A
C2368      F2384   1.382       .  S
C2368      F2385   1.382       .  S
C2368      F2386   1.385       .  S
C2370      F2381   1.383       .  S
C2370      F2382   1.385       .  S
C2370      F2383   1.384       .  S
C2372      C2373   1.404       .  A
C2372      C2377   1.521       .  S
C2373      C2374   1.413       .  A
C2373      H2378   1.081       .  S
C2374      C2375   1.428       .  A
C2375      C2376   1.411       .  A
C2375      C2379   1.521       .  S
C2376      H2380   1.083       .  S
C2377      F2390   1.384       .  S
C2377      F2391   1.382       .  S
C2377      F2392   1.382       .  S
C2379      F2387   1.385       .  S
C2379      F2388   1.383       .  S
C2379      F2389   1.384       .  S
C2393      C2394   1.398       .  A
C2393      C2398   1.400       .  A
C2393      H2403   1.084       .  S
C2394      C2399   1.484       .  S
C2394      C2395   1.415       .  A
C2395      C2396   1.413       .  A
C2395      C2400   1.515       .  S
C2396      C2397   1.407       .  A
C2396      H2401   1.083       .  S
C2397      C2398   1.422       .  A
C2398      C2402   1.521       .  S
C2399      C2404   1.418       .  A
C2399      C2408   1.402       .  A
C2400      F2416   1.383       .  S
C2400      F2417   1.383       .  S
C2400      F2418   1.384       .  S
C2402      F2413   1.382       .  S
C2402      F2414   1.385       .  S
C2402      F2415   1.382       .  S
C2404      C2405   1.404       .  A
C2404      C2409   1.520       .  S
C2405      C2406   1.405       .  A
C2405      H2410   1.085       .  S
C2406      C2407   1.422       .  A
C2407      C2408   1.411       .  A
C2407      C2411   1.518       .  S
C2408      H2412   1.082       .  S
C2409      F2422   1.383       .  S
C2409      F2423   1.383       .  S
C2409      F2424   1.382       .  S
C2411      F2419   1.382       .  S
C2411      F2420   1.383       .  S
C2411      F2421   1.384       .  S
C2425      C2426   1.404       .  A
C2425      C2430   1.410       .  A
C2425      H2435   1.083       .  S
C2426      C2431   1.496       .  S
C2426      C2427   1.419       .  A
C2427      C2428   1.411       .  A
C2427      C2432   1.517       .  S
C2428      C2429   1.403       .  A
C2428      H2433   1.083       .  S
C2429      C2430   1.415       .  A
C2430      C2434   1.517       .  S
C2431      C2436   1.415       .  A
C2431      C2440   1.404       .  A
C2432      F2448   1.383       .  S
C2432      F2449   1.383       .  S
C2432      F2450   1.385       .  S
C2434      F2445   1.382       .  S
C2434      F2446   1.384       .  S
C2434      F2447   1.383       .  S
C2436      C2437   1.405       .  A
C2436      C2441   1.523       .  S
C2437      C2438   1.411       .  A
C2437      H2442   1.082       .  S
C2438      C2439   1.428       .  A
C2439      C2440   1.419       .  A
C2439      C2443   1.517   1_455  S
C2440      H2444   1.083   1_455  S
C2441      F2454   1.384       .  S
C2441      F2455   1.382       .  S
C2441      F2456   1.383       .  S
C2443      F2451   1.385       .  S
C2443      F2452   1.381       .  S
C2443      F2453   1.383       .  S
C2457      C2458   1.406       .  A
C2457      C2462   1.411       .  A
C2457      H2467   1.083       .  S
C2458      C2463   1.488       .  S
C2458      C2459   1.418       .  A
C2459      C2460   1.405       .  A
C2459      C2464   1.521       .  S
C2460      C2461   1.400       .  A
C2460      H2465   1.084       .  S
C2461      C2462   1.414       .  A
C2462      C2466   1.517       .  S
C2463      C2468   1.413       .  A
C2463      C2472   1.400       .  A
C2464      F2480   1.382       .  S
C2464      F2481   1.383       .  S
C2464      F2482   1.384       .  S
C2466      F2477   1.383       .  S
C2466      F2478   1.384       .  S
C2466      F2479   1.384       .  S
C2468      C2469   1.408       .  A
C2468      C2473   1.520       .  S
C2469      C2470   1.411       .  A
C2469      H2474   1.082       .  S
C2470      C2471   1.427       .  A
C2471      C2472   1.409       .  A
C2471      C2475   1.521       .  S
C2472      H2476   1.083       .  S
C2473      F2486   1.384       .  S
C2473      F2487   1.382       .  S
C2473      F2488   1.383       .  S
C2475      F2483   1.385       .  S
C2475      F2484   1.383       .  S
C2475      F2485   1.384       .  S
C2489      C2490   1.401       .  A
C2489      C2494   1.404       .  A
C2489      H2499   1.085       .  S
C2490      C2495   1.486       .  S
C2490      C2491   1.417       .  A
C2491      C2492   1.405       .  A
C2491      C2496   1.515       .  S
C2492      C2493   1.403       .  A
C2492      H2497   1.085       .  S
C2493      C2494   1.422       .  A
C2494      C2498   1.520       .  S
C2495      C2500   1.416       .  A
C2495      C2504   1.400       .  A
C2496      F2512   1.383       .  S
C2496      F2513   1.383       .  S
C2496      F2514   1.384       .  S
C2498      F2509   1.384       .  S
C2498      F2510   1.382       .  S
C2498      F2511   1.378       .  S
C2500      C2501   1.412       .  A
C2500      C2505   1.517       .  S
C2501      C2502   1.406       .  A
C2501      H2506   1.083       .  S
C2502      C2503   1.422       .  A
C2503      C2504   1.402       .  A
C2503      C2507   1.521       .  S
C2504      H2508   1.084       .  S
C2505      F2518   1.384       .  S
C2505      F2519   1.381       .  S
C2505      F2520   1.383       .  S
C2507      F2515   1.382       .  S
C2507      F2516   1.383       .  S
C2507      F2517   1.385       .  S
C2521      C2522   1.400       .  A
C2521      C2526   1.407       .  A
C2521      H2531   1.083       .  S
C2522      C2527   1.481       .  S
C2522      C2523   1.414       .  A
C2523      C2524   1.404       .  A
C2523      C2528   1.519       .  S
C2524      C2525   1.404       .  A
C2524      H2529   1.083       .  S
C2525      C2526   1.420       .  A
C2526      C2530   1.518       .  S
C2527      C2532   1.418       .  A
C2527      C2536   1.402       .  A
C2528      F2544   1.383       .  S
C2528      F2545   1.383       .  S
C2528      F2546   1.385       .  S
C2530      F2541   1.383       .  S
C2530      F2542   1.385       .  S
C2530      F2543   1.383       .  S
C2532      C2533   1.402       .  A
C2532      C2537   1.522       .  S
C2533      C2534   1.401       .  A
C2533      H2538   1.083       .  S
C2534      C2535   1.419       .  A
C2535      C2536   1.409       .  A
C2535      C2539   1.519       .  S
C2536      H2540   1.083       .  S
C2537      F2550   1.385       .  S
C2537      F2551   1.382       .  S
C2537      F2552   1.382       .  S
C2539      F2547   1.383       .  S
C2539      F2548   1.383       .  S
C2539      F2549   1.384       .  S
C2553      C2554   1.401       .  A
C2553      C2558   1.405       .  A
C2553      H2563   1.084       .  S
C2554      C2559   1.483       .  S
C2554      C2555   1.413       .  A
C2555      C2556   1.408       .  A
C2555      C2560   1.519       .  S
C2556      C2557   1.410       .  A
C2556      H2561   1.082       .  S
C2557      C2558   1.424       .  A
C2558      C2562   1.522       .  S
C2559      C2564   1.417       .  A
C2559      C2568   1.401       .  A
C2560      F2576   1.382       .  S
C2560      F2577   1.381       .  S
C2560      F2578   1.385       .  S
C2562      F2573   1.385       .  S
C2562      F2574   1.383       .  S
C2562      F2575   1.383       .  S
C2564      C2565   1.410       .  A
C2564      C2569   1.519       .  S
C2565      C2566   1.405       .  A
C2565      H2570   1.082       .  S
C2566      C2567   1.419       .  A
C2567      C2568   1.402       .  A
C2567      C2571   1.519       .  S
C2568      H2572   1.084       .  S
C2569      F2582   1.385       .  S
C2569      F2583   1.382       .  S
C2569      F2584   1.381       .  S
C2571      F2579   1.385       .  S
C2571      F2580   1.383       .  S
C2571      F2581   1.384       .  S
C2585      C2586   1.400       .  A
C2585      C2590   1.405       .  A
C2585      H2595   1.084       .  S
C2586      C2591   1.479       .  S
C2586      C2587   1.414       .  A
C2587      C2588   1.403       .  A
C2587      C2592   1.520       .  S
C2588      C2589   1.407       .  A
C2588      H2593   1.083       .  S
C2589      C2590   1.422       .  A
C2590      C2594   1.520       .  S
C2591      C2596   1.414       .  A
C2591      C2600   1.401       .  A
C2592      F2608   1.382       .  S
C2592      F2609   1.382       .  S
C2592      F2610   1.385       .  S
C2594      F2605   1.385       .  S
C2594      F2606   1.383       .  S
C2594      F2607   1.384       .  S
C2596      C2597   1.405       .  A
C2596      C2601   1.520       .  S
C2597      C2598   1.405       .  A
C2597      H2602   1.083       .  S
C2598      C2599   1.420       .  A
C2599      C2600   1.406       .  A
C2599      C2603   1.520       .  S
C2600      H2604   1.083       .  S
C2601      F2614   1.384       .  S
C2601      F2615   1.382       .  S
C2601      F2616   1.382       .  S
C2603      F2611   1.385       .  S
C2603      F2612   1.382       .  S
C2603      F2613   1.383       .  S
C2617      C2618   1.400       .  A
C2617      C2622   1.402       .  A
C2617      H2627   1.084       .  S
C2618      C2623   1.473       .  S
C2618      C2619   1.415       .  A
C2619      C2620   1.402       .  A
C2619      C2624   1.519       .  S
C2620      C2621   1.400       .  A
C2620      H2625   1.083       .  S
C2621      C2622   1.417       .  A
C2622      C2626   1.519       .  S
C2623      C2628   1.415       .  A
C2623      C2632   1.403       .  A
C2624      F2640   1.383       .  S
C2624      F2641   1.383       .  S
C2624      F2642   1.385       .  S
C2626      F2637   1.383       .  S
C2626      F2638   1.383       .  S
C2626      F2639   1.382       .  S
C2628      C2629   1.395       .  A
C2628      C2633   1.523       .  S
C2629      C2630   1.401       .  A
C2629      H2634   1.084       .  S
C2630      C2631   1.417       .  A
C2631      C2632   1.409       .  A
C2631      C2635   1.516       .  S
C2632      H2636   1.083       .  S
C2633      F2646   1.385       .  S
C2633      F2647   1.382       .  S
C2633      F2648   1.382       .  S
C2635      F2643   1.383       .  S
C2635      F2644   1.383       .  S
C2635      F2645   1.385       .  S
C2649      C2650   1.402       .  A
C2649      C2654   1.402       .  A
C2649      H2659   1.084       .  S
C2650      C2655   1.489       .  S
C2650      C2651   1.418       .  A
C2651      C2652   1.411       .  A
C2651      C2656   1.519       .  S
C2652      C2653   1.406       .  A
C2652      H2657   1.083       .  S
C2653      C2654   1.417       .  A
C2654      C2658   1.517       .  S
C2655      C2660   1.419       .  A
C2655      C2664   1.404       .  A
C2656      F2672   1.381       .  S
C2656      F2673   1.382       .  S
C2656      F2674   1.385       .  S
C2658      F2669   1.384       .  S
C2658      F2670   1.385       .  S
C2658      F2671   1.382       .  S
C2660      C2661   1.409       .  A
C2660      C2665   1.519       .  S
C2661      C2662   1.402       .  A
C2661      H2666   1.084       .  S
C2662      C2663   1.413       .  A
C2663      C2664   1.405       .  A
C2663      C2667   1.518       .  S
C2664      H2668   1.083       .  S
C2665      F2678   1.385       .  S
C2665      F2679   1.381       .  S
C2665      F2680   1.382       .  S
C2667      F2675   1.383       .  S
C2667      F2676   1.383       .  S
C2667      F2677   1.385       .  S
C2681      C2682   1.402       .  A
C2681      C2686   1.403       .  A
C2681      H2691   1.085       .  S
C2682      C2687   1.484       .  S
C2682      C2683   1.416       .  A
C2683      C2684   1.409       .  A
C2683      C2688   1.519       .  S
C2684      C2685   1.407       .  A
C2684      H2689   1.083       .  S
C2685      C2686   1.418       .  A
C2686      C2690   1.517       .  S
C2687      C2692   1.419       .  A
C2687      C2696   1.403       .  A
C2688      F2704   1.382       .  S
C2688      F2705   1.382       .  S
C2688      F2706   1.384       .  S
C2690      F2701   1.385       .  S
C2690      F2702   1.382       .  S
C2690      F2703   1.382       .  S
C2692      C2693   1.410       .  A
C2692      C2697   1.519       .  S
C2693      C2694   1.401       .  A
C2693      H2698   1.082       .  S
C2694      C2695   1.412       .  A
C2695      C2696   1.403       .  A
C2695      C2699   1.519       .  S
C2696      H2700   1.083       .  S
C2697      F2710   1.385       .  S
C2697      F2711   1.381       .  S
C2697      F2712   1.382       .  S
C2699      F2707   1.383       .  S
C2699      F2708   1.383       .  S
C2699      F2709   1.384       .  S
C2713      C2714   1.400       .  A
C2713      C2718   1.406       .  A
C2713      H2723   1.082       .  S
C2714      C2719   1.489       .  S
C2714      C2715   1.417       .  A
C2715      C2716   1.410       .  A
C2715      C2720   1.518       .  S
C2716      C2717   1.406       .  A
C2716      H2721   1.082       .  S
C2717      C2718   1.423       .  A
C2718      C2722   1.521       .  S
C2719      C2724   1.414       .  A
C2719      C2728   1.399       .  A
C2720      F2736   1.382       .  S
C2720      F2737   1.382       .  S
C2720      F2738   1.385       .  S
C2722      F2733   1.383       .  S
C2722      F2734   1.385       .  S
C2722      F2735   1.384       .  S
C2724      C2725   1.409       .  A
C2724      C2729   1.520       .  S
C2725      C2726   1.410       .  A
C2725      H2730   1.082       .  S
C2726      C2727   1.430       .  A
C2727      C2728   1.410       .  A
C2727      C2731   1.521       .  S
C2728      H2732   1.083       .  S
C2729      F2742   1.384       .  S
C2729      F2743   1.382       .  S
C2729      F2744   1.382       .  S
C2731      F2739   1.385       .  S
C2731      F2740   1.384       .  S
C2731      F2741   1.383       .  S
C2745      C2746   1.404       .  A
C2745      C2750   1.413       .  A
C2745      H2755   1.082       .  S
C2746      C2751   1.489       .  S
C2746      C2747   1.417       .  A
C2747      C2748   1.403       .  A
C2747      C2752   1.523       .  S
C2748      C2749   1.406       .  A
C2748      H2753   1.083       .  S
C2749      C2750   1.420       .  A
C2750      C2754   1.518       .  S
C2751      C2756   1.416       .  A
C2751      C2760   1.403       .  A
C2752      F2768   1.382       .  S
C2752      F2769   1.383       .  S
C2752      F2770   1.385       .  S
C2754      F2765   1.384       .  S
C2754      F2766   1.382       .  S
C2754      F2767   1.384       .  S
C2756      C2757   1.406       .  A
C2756      C2761   1.520       .  S
C2757      C2758   1.405       .  A
C2757      H2762   1.083       .  S
C2758      C2759   1.421       .  A
C2759      C2760   1.411       .  A
C2759      C2763   1.519       .  S
C2760      H2764   1.083       .  S
C2761      F2774   1.384       .  S
C2761      F2775   1.382       .  S
C2761      F2776   1.383       .  S
C2763      F2771   1.384       .  S
C2763      F2772   1.383       .  S
C2763      F2773   1.384       .  S
C2777      C2778   1.400       .  A
C2777      C2782   1.398       .  A
C2777      H2787   1.084       .  S
C2778      C2783   1.483       .  S
C2778      C2779   1.417       .  A
C2779      C2780   1.412       .  A
C2779      C2784   1.517       .  S
C2780      C2781   1.404       .  A
C2780      H2785   1.082       .  S
C2781      C2782   1.416       .  A
C2782      C2786   1.518       .  S
C2783      C2788   1.419       .  A
C2783      C2792   1.403       .  A
C2784      F2800   1.381       .  S
C2784      F2801   1.383       .  S
C2784      F2802   1.385       .  S
C2786      F2797   1.385       .  S
C2786      F2798   1.382       .  S
C2786      F2799   1.383       .  S
C2788      C2789   1.406       .  A
C2788      C2793   1.515       .  S
C2789      C2790   1.401       .  A
C2789      H2794   1.085       .  S
C2790      C2791   1.414       .  A
C2791      C2792   1.403       .  A
C2791      C2795   1.517       .  S
C2792      H2796   1.083       .  S
C2793      F2806   1.384       .  S
C2793      F2807   1.383       .  S
C2793      F2808   1.384       .  S
C2795      F2803   1.383       .  S
C2795      F2804   1.382       .  S
C2795      F2805   1.385       .  S
C2809      C2810   1.399       .  A
C2809      C2814   1.402       .  A
C2809      H2819   1.084       .  S
C2810      C2815   1.481       .  S
C2810      C2811   1.411       .  A
C2811      C2812   1.408       .  A
C2811      C2816   1.518       .  S
C2812      C2813   1.411       .  A
C2812      H2817   1.082       .  S
C2813      C2814   1.426       .  A
C2814      C2818   1.522       .  S
C2815      C2820   1.415       .  A
C2815      C2824   1.403       .  A
C2816      F2832   1.381       .  S
C2816      F2833   1.383       .  S
C2816      F2834   1.385       .  S
C2818      F2829   1.385       .  S
C2818      F2830   1.383       .  S
C2818      F2831   1.381       .  S
C2820      C2821   1.405       .  A
C2820      C2825   1.516       .  S
C2821      C2822   1.406       .  A
C2821      H2826   1.085       .  S
C2822      C2823   1.419       .  A
C2823      C2824   1.404       .  A
C2823      C2827   1.519       .  S
C2824      H2828   1.084       .  S
C2825      F2838   1.383       .  S
C2825      F2839   1.383       .  S
C2825      F2840   1.383       .  S
C2827      F2835   1.382       .  S
C2827      F2836   1.384       .  S
C2827      F2837   1.385       .  S
C2841      C2842   1.405       .  A
C2841      C2846   1.414       .  A
C2841      H2851   1.083       .  S
C2842      C2847   1.485       .  S
C2842      C2843   1.417       .  A
C2843      C2844   1.400       .  A
C2843      C2848   1.523       .  S
C2844      C2845   1.402       .  A
C2844      H2849   1.081       .  S
C2845      C2846   1.418       .  A
C2846      C2850   1.518       .  S
C2847      C2852   1.415       .  A
C2847      C2856   1.402       .  A
C2848      F2864   1.382       .  S
C2848      F2865   1.383       .  S
C2848      F2866   1.385       .  S
C2850      F2861   1.383       .  S
C2850      F2862   1.384       .  S
C2850      F2863   1.384       .  S
C2852      C2853   1.408       .  A
C2852      C2857   1.518       .  S
C2853      C2854   1.404       .  A
C2853      H2858   1.083       .  S
C2854      C2855   1.418       .  A
C2855      C2856   1.405       .  A
C2855      C2859   1.519       .  S
C2856      H2860   1.084       .  S
C2857      F2870   1.385       .  S
C2857      F2871   1.382       .  S
C2857      F2872   1.383       .  S
C2859      F2867   1.385       .  S
C2859      F2868   1.383       .  S
C2859      F2869   1.382       .  S
C2873      C2874   1.400       .  A
C2873      C2878   1.412       .  A
C2873      H2883   1.083       .  S
C2874      C2879   1.486       .  S
C2874      C2875   1.414       .  A
C2875      C2876   1.407       .  A
C2875      C2880   1.522       .  S
C2876      C2877   1.410       .  A
C2876      H2881   1.082       .  S
C2877      C2878   1.427       .  A
C2878      C2882   1.518       .  S
C2879      C2884   1.416       .  A
C2879      C2888   1.399       .  A
C2880      F2896   1.382       .  S
C2880      F2897   1.381       .  S
C2880      F2898   1.384       .  S
C2882      F2893   1.383       .  S
C2882      F2894   1.385       .  S
C2882      F2895   1.382       .  S
C2884      C2885   1.412       .  A
C2884      C2889   1.518       .  S
C2885      C2886   1.407       .  A
C2885      H2890   1.083       .  S
C2886      C2887   1.420       .  A
C2887      C2888   1.402       .  A
C2887      C2891   1.518       .  S
C2888      H2892   1.085       .  S
C2889      F2902   1.384       .  S
C2889      F2903   1.382       .  S
C2889      F2904   1.382       .  S
C2891      F2899   1.385       .  S
C2891      F2900   1.384       .  S
C2891      F2901   1.383       .  S
C2905      C2906   1.399       .  A
C2905      C2910   1.402       .  A
C2905      H2915   1.083       .  S
C2906      C2911   1.489       .  S
C2906      C2907   1.419       .  A
C2907      C2908   1.414       .  A
C2907      C2912   1.517       .  S
C2908      C2909   1.404       .  A
C2908      H2913   1.083       .  S
C2909      C2910   1.420       .  A
C2910      C2914   1.518       .  S
C2911      C2916   1.418       .  A
C2911      C2920   1.402       .  A
C2912      F2928   1.382       .  S
C2912      F2929   1.383       .  S
C2912      F2930   1.384       .  S
C2914      F2925   1.385       .  S
C2914      F2926   1.381       .  S
C2914      F2927   1.382       .  S
C2916      C2917   1.410       .  A
C2916      C2921   1.518       .  S
C2917      C2918   1.402       .  A
C2917      H2922   1.083       .  S
C2918      C2919   1.416       .  A
C2919      C2920   1.406       .  A
C2919      C2923   1.517       .  S
C2920      H2924   1.083       .  S
C2921      F2934   1.384       .  S
C2921      F2935   1.382       .  S
C2921      F2936   1.382       .  S
C2923      F2931   1.380       .  S
C2923      F2932   1.383       .  S
C2923      F2933   1.385       .  S
C2937      C2938   1.401       .  A
C2937      C2942   1.403       .  A
C2937      H2947   1.084       .  S
C2938      C2943   1.480       .  S
C2938      C2939   1.414       .  A
C2939      C2940   1.405       .  A
C2939      C2944   1.519       .  S
C2940      C2941   1.403       .  A
C2940      H2945   1.082       .  S
C2941      C2942   1.416       .  A
C2942      C2946   1.517       .  S
C2943      C2948   1.413       .  A
C2943      C2952   1.401       .  A
C2944      F2960   1.382       .  S
C2944      F2961   1.382       .  S
C2944      F2962   1.385       .  S
C2946      F2957   1.383       .  S
C2946      F2958   1.383       .  S
C2946      F2959   1.383       .  S
C2948      C2949   1.399       .  A
C2948      C2953   1.524       .  S
C2949      C2950   1.409       .  A
C2949      H2954   1.082       .  S
C2950      C2951   1.425       .  A
C2951      C2952   1.413       .  A
C2951      C2955   1.519       .  S
C2952      H2956   1.083       .  S
C2953      F2966   1.385       .  S
C2953      F2967   1.382       .  S
C2953      F2968   1.382       .  S
C2955      F2963   1.383       .  S
C2955      F2964   1.383       .  S
C2955      F2965   1.385       .  S
C2969      C2970   1.402       .  A
C2969      C2974   1.402       .  A
C2969      H2979   1.084       .  S
C2970      C2975   1.477       .  S
C2970      C2971   1.417       .  A
C2971      C2972   1.402       .  A
C2971      C2976   1.518       .  S
C2972      C2973   1.402       .  A
C2972      H2977   1.085       .  S
C2973      C2974   1.418       .  A
C2974      C2978   1.521       .  S
C2975      C2980   1.414   1_655  A
C2975      C2984   1.400       .  A
C2976      F2992   1.383       .  S
C2976      F2993   1.382       .  S
C2976      F2994   1.383       .  S
C2978      F2989   1.385       .  S
C2978      F2990   1.382       .  S
C2978      F2991   1.384       .  S
C2980      C2981   1.407       .  A
C2980      C2985   1.518   1_455  S
C2981      C2982   1.405       .  A
C2981      H2986   1.083       .  S
C2982      C2983   1.418       .  A
C2983      C2984   1.401   1_455  A
C2983      C2987   1.520       .  S
C2984      H2988   1.084       .  S
C2985      F2998   1.384   1_655  S
C2985      F2999   1.382       .  S
C2985      F3000   1.383       .  S
C2987      F2995   1.382       .  S
C2987      F2996   1.384       .  S
C2987      F2997   1.385   1_455  S
C3001      C3002   1.402       .  A
C3001      C3006   1.415       .  A
C3001      H3011   1.083       .  S
C3002      C3007   1.488       .  S
C3002      C3003   1.415       .  A
C3003      C3004   1.401       .  A
C3003      C3008   1.524       .  S
C3004      C3005   1.410       .  A
C3004      H3009   1.082       .  S
C3005      C3006   1.428       .  A
C3006      C3010   1.520       .  S
C3007      C3012   1.414       .  A
C3007      C3016   1.403       .  A
C3008      F3024   1.382       .  S
C3008      F3025   1.382       .  S
C3008      F3026   1.385       .  S
C3010      F3021   1.385   1_556  S
C3010      F3022   1.383       .  S
C3010      F3023   1.383       .  S
C3012      C3013   1.406       .  A
C3012      C3017   1.519       .  S
C3013      C3014   1.406       .  A
C3013      H3018   1.082       .  S
C3014      C3015   1.419       .  A
C3015      C3016   1.409       .  A
C3015      C3019   1.518       .  S
C3016      H3020   1.083       .  S
C3017      F3030   1.385   1_556  S
C3017      F3031   1.382   1_556  S
C3017      F3032   1.383       .  S
C3019      F3027   1.385       .  S
C3019      F3028   1.382       .  S
C3019      F3029   1.382       .  S
C3033      C3034   1.402       .  A
C3033      C3038   1.400       .  A
C3033      H3043   1.085       .  S
C3034      C3039   1.479       .  S
C3034      C3035   1.417       .  A
C3035      C3036   1.404       .  A
C3035      C3040   1.516       .  S
C3036      C3037   1.402       .  A
C3036      H3041   1.085       .  S
C3037      C3038   1.416       .  A
C3038      C3042   1.518       .  S
C3039      C3044   1.411       .  A
C3039      C3048   1.399       .  A
C3040      F3056   1.383       .  S
C3040      F3057   1.383       .  S
C3040      F3058   1.383       .  S
C3042      F3053   1.384       .  S
C3042      F3054   1.383       .  S
C3042      F3055   1.384       .  S
C3044      C3045   1.407       .  A
C3044      C3049   1.517       .  S
C3045      C3046   1.411       .  A
C3045      H3050   1.083       .  S
C3046      C3047   1.426       .  A
C3047      C3048   1.403       .  A
C3047      C3051   1.522       .  S
C3048      H3052   1.084       .  S
C3049      F3062   1.384       .  S
C3049      F3063   1.382       .  S
C3049      F3064   1.383       .  S
C3051      F3059   1.385       .  S
C3051      F3060   1.383       .  S
C3051      F3061   1.382       .  S
C3065      C3066   1.403       .  A
C3065      C3070   1.414       .  A
C3065      H3075   1.083       .  S
C3066      C3071   1.491       .  S
C3066      C3067   1.416       .  A
C3067      C3068   1.407       .  A
C3067      C3072   1.522       .  S
C3068      C3069   1.409       .  A
C3068      H3073   1.083       .  S
C3069      C3070   1.423       .  A
C3070      C3074   1.516       .  S
C3071      C3076   1.415       .  A
C3071      C3080   1.400       .  A
C3072      F3088   1.382       .  S
C3072      F3089   1.381       .  S
C3072      F3090   1.385       .  S
C3074      F3085   1.383       .  S
C3074      F3086   1.385       .  S
C3074      F3087   1.383       .  S
C3076      C3077   1.413       .  A
C3076      C3081   1.517       .  S
C3077      C3078   1.408       .  A
C3077      H3082   1.083       .  S
C3078      C3079   1.424       .  A
C3079      C3080   1.406       .  A
C3079      C3083   1.521       .  S
C3080      H3084   1.084       .  S
C3081      F3094   1.385   1_545  S
C3081      F3095   1.383       .  S
C3081      F3096   1.381       .  S
C3083      F3091   1.384       .  S
C3083      F3092   1.382       .  S
C3083      F3093   1.385       .  S
C3097      C3098   1.404       .  A
C3097      C3102   1.407       .  A
C3097      H3107   1.083       .  S
C3098      C3103   1.481       .  S
C3098      C3099   1.418       .  A
C3099      C3100   1.402       .  A
C3099      C3104   1.521       .  S
C3100      C3101   1.399       .  A
C3100      H3105   1.084       .  S
C3101      C3102   1.412       .  A
C3102      C3106   1.517       .  S
C3103      C3108   1.414       .  A
C3103      C3112   1.400       .  A
C3104      F3120   1.382       .  S
C3104      F3121   1.382       .  S
C3104      F3122   1.385       .  S
C3106      F3117   1.383       .  S
C3106      F3118   1.384       .  S
C3106      F3119   1.383       .  S
C3108      C3109   1.404       .  A
C3108      C3113   1.522       .  S
C3109      C3110   1.408       .  A
C3109      H3114   1.083       .  S
C3110      C3111   1.423       .  A
C3111      C3112   1.408       .  A
C3111      C3115   1.519       .  S
C3112      H3116   1.083       .  S
C3113      F3126   1.385       .  S
C3113      F3127   1.382       .  S
C3113      F3128   1.383       .  S
C3115      F3123   1.385       .  S
C3115      F3124   1.383       .  S
C3115      F3125   1.383       .  S
C3129      C3130   1.397       .  A
C3129      C3134   1.409       .  A
C3129      H3139   1.083       .  S
C3130      C3135   1.475       .  S
C3130      C3131   1.414       .  A
C3131      C3132   1.401       .  A
C3131      C3136   1.525       .  S
C3132      C3133   1.409       .  A
C3132      H3137   1.082       .  S
C3133      C3134   1.428       .  A
C3134      C3138   1.520       .  S
C3135      C3140   1.413       .  A
C3135      C3144   1.398       .  A
C3136      F3152   1.383       .  S
C3136      F3153   1.381       .  S
C3136      F3154   1.384       .  S
C3138      F3149   1.380       .  S
C3138      F3150   1.385       .  S
C3138      F3151   1.384       .  S
C3140      C3141   1.409       .  A
C3140      C3145   1.517       .  S
C3141      C3142   1.405       .  A
C3141      H3146   1.082       .  S
C3142      C3143   1.415       .  A
C3143      C3144   1.396       .  A
C3143      C3147   1.516       .  S
C3144      H3148   1.085       .  S
C3145      F3158   1.384       .  S
C3145      F3159   1.383       .  S
C3145      F3160   1.382       .  S
C3147      F3155   1.384       .  S
C3147      F3156   1.383       .  S
C3147      F3157   1.381       .  S
C3161      C3162   1.404       .  A
C3161      C3166   1.407       .  A
C3161      H3171   1.083   1_545  S
C3162      C3167   1.481   1_545  S
C3162      C3163   1.417       .  A
C3163      C3164   1.405       .  A
C3163      C3168   1.521       .  S
C3164      C3165   1.400       .  A
C3164      H3169   1.084       .  S
C3165      C3166   1.411       .  A
C3166      C3170   1.516       .  S
C3167      C3172   1.411       .  A
C3167      C3176   1.399       .  A
C3168      F3184   1.382       .  S
C3168      F3185   1.382       .  S
C3168      F3186   1.385       .  S
C3170      F3181   1.383       .  S
C3170      F3182   1.384       .  S
C3170      F3183   1.383       .  S
C3172      C3173   1.408       .  A
C3172      C3177   1.518       .  S
C3173      C3174   1.410       .  A
C3173      H3178   1.082       .  S
C3174      C3175   1.425       .  A
C3175      C3176   1.405       .  A
C3175      C3179   1.521       .  S
C3176      H3180   1.083       .  S
C3177      F3190   1.384       .  S
C3177      F3191   1.383       .  S
C3177      F3192   1.381       .  S
C3179      F3187   1.385       .  S
C3179      F3188   1.384       .  S
C3179      F3189   1.383       .  S
C3193      C3194   1.398       .  A
C3193      C3198   1.407       .  A
C3193      H3203   1.084       .  S
C3194      C3199   1.477       .  S
C3194      C3195   1.411       .  A
C3195      C3196   1.402       .  A
C3195      C3200   1.520       .  S
C3196      C3197   1.408       .  A
C3196      H3201   1.083       .  S
C3197      C3198   1.425       .  A
C3198      C3202   1.519       .  S
C3199      C3204   1.418       .  A
C3199      C3208   1.402       .  A
C3200      F3216   1.383       .  S
C3200      F3217   1.383       .  S
C3200      F3218   1.385       .  S
C3202      F3213   1.382       .  S
C3202      F3214   1.385       .  S
C3202      F3215   1.381       .  S
C3204      C3205   1.399       .  A
C3204      C3209   1.522       .  S
C3205      C3206   1.397       .  A
C3205      H3210   1.084       .  S
C3206      C3207   1.415       .  A
C3207      C3208   1.408       .  A
C3207      C3211   1.518       .  S
C3208      H3212   1.083       .  S
C3209      F3222   1.384       .  S
C3209      F3223   1.381       .  S
C3209      F3224   1.382       .  S
C3211      F3219   1.382       .  S
C3211      F3220   1.384       .  S
C3211      F3221   1.384       .  S
C3225      C3226   1.402       .  A
C3225      C3230   1.403       .  A
C3225      H3235   1.084       .  S
C3226      C3231   1.481       .  S
C3226      C3227   1.415       .  A
C3227      C3228   1.406       .  A
C3227      C3232   1.520       .  S
C3228      C3229   1.407       .  A
C3228      H3233   1.083       .  S
C3229      C3230   1.419       .  A
C3230      C3234   1.518       .  S
C3231      C3236   1.413       .  A
C3231      C3240   1.399       .  A
C3232      F3248   1.382       .  S
C3232      F3249   1.382       .  S
C3232      F3250   1.384       .  S
C3234      F3245   1.385       .  S
C3234      F3246   1.383       .  S
C3234      F3247   1.384       .  S
C3236      C3237   1.408       .  A
C3236      C3241   1.518       .  S
C3237      C3238   1.408       .  A
C3237      H3242   1.082       .  S
C3238      C3239   1.426       .  A
C3239      C3240   1.402       .  A
C3239      C3243   1.524       .  S
C3240      H3244   1.083       .  S
C3241      F3254   1.384       .  S
C3241      F3255   1.381       .  S
C3241      F3256   1.382       .  S
C3243      F3251   1.385       .  S
C3243      F3252   1.383       .  S
C3243      F3253   1.382       .  S
C3257      C3258   1.402       .  A
C3257      C3262   1.408       .  A
C3257      H3267   1.083       .  S
C3258      C3263   1.477       .  S
C3258      C3259   1.417       .  A
C3259      C3260   1.401       .  A
C3259      C3264   1.522       .  S
C3260      C3261   1.400       .  A
C3260      H3265   1.084       .  S
C3261      C3262   1.416       .  A
C3262      C3266   1.518       .  S
C3263      C3268   1.414       .  A
C3263      C3272   1.400       .  A
C3264      F3280   1.382       .  S
C3264      F3281   1.382       .  S
C3264      F3282   1.385       .  S
C3266      F3277   1.383       .  S
C3266      F3278   1.384       .  S
C3266      F3279   1.383       .  S
C3268      C3269   1.403       .  A
C3268      C3273   1.519       .  S
C3269      C3270   1.402       .  A
C3269      H3274   1.083       .  S
C3270      C3271   1.417       .  A
C3271      C3272   1.406       .  A
C3271      C3275   1.517       .  S
C3272      H3276   1.083       .  S
C3273      F3286   1.385       .  S
C3273      F3287   1.383       .  S
C3273      F3288   1.382       .  S
C3275      F3283   1.383       .  S
C3275      F3284   1.381       .  S
C3275      F3285   1.385       .  S
C3289      C3290   1.398       .  A
C3289      C3294   1.404       .  A
C3289      H3299   1.084       .  S
C3290      C3295   1.481       .  S
C3290      C3291   1.413       .  A
C3291      C3292   1.409       .  A
C3291      C3296   1.520       .  S
C3292      C3293   1.410       .  A
C3292      H3297   1.083       .  S
C3293      C3294   1.426       .  A
C3294      C3298   1.522       .  S
C3295      C3300   1.415       .  A
C3295      C3304   1.399       .  A
C3296      F3312   1.382       .  S
C3296      F3313   1.382       .  S
C3296      F3314   1.384       .  S
C3298      F3309   1.385       .  S
C3298      F3310   1.383       .  S
C3298      F3311   1.384       .  S
C3300      C3301   1.407       .  A
C3300      C3305   1.519       .  S
C3301      C3302   1.406       .  A
C3301      H3306   1.082       .  S
C3302      C3303   1.422       .  A
C3303      C3304   1.402       .  A
C3303      C3307   1.521       .  S
C3304      H3308   1.083       .  S
C3305      F3318   1.385       .  S
C3305      F3319   1.382       .  S
C3305      F3320   1.382       .  S
C3307      F3315   1.385       .  S
C3307      F3316   1.383       .  S
C3307      F3317   1.383       .  S
C3321      C3322   1.404       .  A
C3321      C3326   1.407       .  A
C3321      H3331   1.083       .  S
C3322      C3327   1.485       .  S
C3322      C3323   1.418       .  A
C3323      C3324   1.407       .  A
C3323      C3328   1.519       .  S
C3324      C3325   1.400       .  A
C3324      H3329   1.082       .  S
C3325      C3326   1.414       .  A
C3326      C3330   1.515       .  S
C3327      C3332   1.414       .  A
C3327      C3336   1.398       .  A
C3328      F3344   1.382       .  S
C3328      F3345   1.381       .  S
C3328      F3346   1.385       .  S
C3330      F3341   1.384       .  S
C3330      F3342   1.381       .  S
C3330      F3343   1.384       .  S
C3332      C3333   1.414       .  A
C3332      C3337   1.517       .  S
C3333      C3334   1.410       .  A
C3333      H3338   1.083       .  S
C3334      C3335   1.426       .  A
C3335      C3336   1.401       .  A
C3335      C3339   1.524       .  S
C3336      H3340   1.084       .  S
C3337      F3350   1.384       .  S
C3337      F3351   1.382       .  S
C3337      F3352   1.381       .  S
C3339      F3347   1.385       .  S
C3339      F3348   1.383       .  S
C3339      F3349   1.381       .  S
C3353      C3354   1.404       .  A
C3353      C3358   1.403       .  A
C3353      H3363   1.083       .  S
C3354      C3359   1.488       .  S
C3354      C3355   1.419       .  A
C3355      C3356   1.407       .  A
C3355      C3360   1.516       .  S
C3356      C3357   1.402       .  A
C3356      H3361   1.083       .  S
C3357      C3358   1.414       .  A
C3358      C3362   1.518       .  S
C3359      C3364   1.418       .  A
C3359      C3368   1.402       .  A
C3360      F3376   1.383       .  S
C3360      F3377   1.383       .  S
C3360      F3378   1.384       .  S
C3362      F3373   1.384       .  S
C3362      F3374   1.382       .  S
C3362      F3375   1.383       .  S
C3364      C3365   1.409       .  A
C3364      C3369   1.515       .  S
C3365      C3366   1.403       .  A
C3365      H3370   1.084       .  S
C3366      C3367   1.418       .  A
C3367      C3368   1.403       .  A
C3367      C3371   1.519       .  S
C3368      H3372   1.083       .  S
C3369      F3382   1.384       .  S
C3369      F3383   1.383       .  S
C3369      F3384   1.384       .  S
C3371      F3379   1.384       .  S
C3371      F3380   1.382       .  S
C3371      F3381   1.382       .  S
C3385      C3386   1.400       .  A
C3385      C3390   1.410       .  A
C3385      H3395   1.083       .  S
C3386      C3391   1.485       .  S
C3386      C3387   1.415       .  A
C3387      C3388   1.406       .  A
C3387      C3392   1.522       .  S
C3388      C3389   1.408       .  A
C3388      H3393   1.083       .  S
C3389      C3390   1.425       .  A
C3390      C3394   1.519       .  S
C3391      C3396   1.415       .  A
C3391      C3400   1.400       .  A
C3392      F3408   1.382       .  S
C3392      F3409   1.381       .  S
C3392      F3410   1.385       .  S
C3394      F3405   1.383       .  S
C3394      F3406   1.385       .  S
C3394      F3407   1.382       .  S
C3396      C3397   1.413       .  A
C3396      C3401   1.517       .  S
C3397      C3398   1.405       .  A
C3397      H3402   1.083       .  S
C3398      C3399   1.417       .  A
C3399      C3400   1.403       .  A
C3399      C3403   1.519       .  S
C3400      H3404   1.084       .  S
C3401      F3414   1.382   1_556  S
C3401      F3415   1.382   1_556  S
C3401      F3416   1.381   1_556  S
C3403      F3411   1.385       .  S
C3403      F3412   1.383       .  S
C3403      F3413   1.382       .  S
C3417      C3418   1.400       .  A
C3417      C3422   1.403       .  A
C3417      H3427   1.084       .  S
C3418      C3423   1.478       .  S
C3418      C3419   1.413       .  A
C3419      C3420   1.406       .  A
C3419      C3424   1.518       .  S
C3420      C3421   1.406       .  A
C3420      H3425   1.084       .  S
C3421      C3422   1.417       .  A
C3422      C3426   1.517       .  S
C3423      C3428   1.415       .  A
C3423      C3432   1.400       .  A
C3424      F3440   1.382       .  S
C3424      F3441   1.382       .  S
C3424      F3442   1.385       .  S
C3426      F3437   1.382       .  S
C3426      F3438   1.385       .  S
C3426      F3439   1.383       .  S
C3428      C3429   1.400       .  A
C3428      C3433   1.523       .  S
C3429      C3430   1.405       .  A
C3429      H3434   1.082       .  S
C3430      C3431   1.424       .  A
C3431      C3432   1.410       .  A
C3431      C3435   1.520       .  S
C3432      H3436   1.083       .  S
C3433      F3446   1.385       .  S
C3433      F3447   1.382       .  S
C3433      F3448   1.382       .  S
C3435      F3443   1.385   1_556  S
C3435      F3444   1.383       .  S
C3435      F3445   1.383       .  S
C3449      C3450   1.403       .  A
C3449      C3454   1.406       .  A
C3449      H3459   1.083       .  S
C3450      C3455   1.480       .  S
C3450      C3451   1.413       .  A
C3451      C3452   1.403       .  A
C3451      C3456   1.519       .  S
C3452      C3453   1.405       .  A
C3452      H3457   1.083       .  S
C3453      C3454   1.417       .  A
C3454      C3458   1.518       .  S
C3455      C3460   1.410       .  A
C3455      C3464   1.399       .  A
C3456      F3472   1.382       .  S
C3456      F3473   1.382       .  S
C3456      F3474   1.385       .  S
C3458      F3469   1.382       .  S
C3458      F3470   1.385       .  S
C3458      F3471   1.384       .  S
C3460      C3461   1.402       .  A
C3460      C3465   1.524       .  S
C3461      C3462   1.415       .  A
C3461      H3466   1.081       .  S
C3462      C3463   1.429       .  A
C3463      C3464   1.412       .  A
C3463      C3467   1.519       .  S
C3464      H3468   1.083       .  S
C3465      F3478   1.384       .  S
C3465      F3479   1.382       .  S
C3465      F3480   1.382       .  S
C3467      F3475   1.385       .  S
C3467      F3476   1.383       .  S
C3467      F3477   1.383       .  S
C3481      C3482   1.401       .  A
C3481      C3486   1.408       .  A
C3481      H3491   1.083       .  S
C3482      C3487   1.482       .  S
C3482      C3483   1.412       .  A
C3483      C3484   1.406       .  A
C3483      C3488   1.520       .  S
C3484      C3485   1.409       .  A
C3484      H3489   1.083       .  S
C3485      C3486   1.423       .  A
C3486      C3490   1.520       .  S
C3487      C3492   1.413       .  A
C3487      C3496   1.403       .  A
C3488      F3504   1.382       .  S
C3488      F3505   1.382       .  S
C3488      F3506   1.384       .  S
C3490      F3501   1.385       .  S
C3490      F3502   1.383       .  S
C3490      F3503   1.383       .  S
C3492      C3493   1.404       .  A
C3492      C3497   1.520       .  S
C3493      C3494   1.408       .  A
C3493      H3498   1.083       .  S
C3494      C3495   1.419       .  A
C3495      C3496   1.408       .  A
C3495      C3499   1.518       .  S
C3496      H3500   1.083       .  S
C3497      F3510   1.385       .  S
C3497      F3511   1.382       .  S
C3497      F3512   1.382       .  S
C3499      F3507   1.383       .  S
C3499      F3508   1.383       .  S
C3499      F3509   1.385       .  S
C3513      C3514   1.401       .  A
C3513      C3518   1.402       .  A
C3513      H3523   1.084       .  S
C3514      C3519   1.486       .  S
C3514      C3515   1.419       .  A
C3515      C3516   1.409       .  A
C3515      C3520   1.518       .  S
C3516      C3517   1.401       .  A
C3516      H3521   1.084       .  S
C3517      C3518   1.417       .  A
C3518      C3522   1.519       .  S
C3519      C3524   1.416   1_655  A
C3519      C3528   1.399       .  A
C3520      F3536   1.382       .  S
C3520      F3537   1.383       .  S
C3520      F3538   1.385       .  S
C3522      F3533   1.384       .  S
C3522      F3534   1.383       .  S
C3522      F3535   1.382       .  S
C3524      C3525   1.412       .  A
C3524      C3529   1.518   1_455  S
C3525      C3526   1.407       .  A
C3525      H3530   1.083       .  S
C3526      C3527   1.420       .  A
C3527      C3528   1.402   1_455  A
C3527      C3531   1.519       .  S
C3528      H3532   1.084       .  S
C3529      F3542   1.385   1_655  S
C3529      F3543   1.382       .  S
C3529      F3544   1.382       .  S
C3531      F3539   1.385       .  S
C3531      F3540   1.382       .  S
C3531      F3541   1.381       .  S
C3545      C3546   1.403       .  A
C3545      C3550   1.408       .  A
C3545      H3555   1.083       .  S
C3546      C3551   1.484       .  S
C3546      C3547   1.418       .  A
C3547      C3548   1.405       .  A
C3547      C3552   1.520       .  S
C3548      C3549   1.399       .  A
C3548      H3553   1.084       .  S
C3549      C3550   1.415       .  A
C3550      C3554   1.517       .  S
C3551      C3556   1.413       .  A
C3551      C3560   1.399       .  A
C3552      F3568   1.382       .  S
C3552      F3569   1.382       .  S
C3552      F3570   1.385       .  S
C3554      F3565   1.383       .  S
C3554      F3566   1.385       .  S
C3554      F3567   1.383       .  S
C3556      C3557   1.407       .  A
C3556      C3561   1.519       .  S
C3557      C3558   1.410       .  A
C3557      H3562   1.082       .  S
C3558      C3559   1.425       .  A
C3559      C3560   1.407       .  A
C3559      C3563   1.520       .  S
C3560      H3564   1.083       .  S
C3561      F3574   1.385       .  S
C3561      F3575   1.383       .  S
C3561      F3576   1.382       .  S
C3563      F3571   1.385       .  S
C3563      F3572   1.384       .  S
C3563      F3573   1.383       .  S
C3577      C3578   1.398       .  A
C3577      C3582   1.408       .  A
C3577      H3587   1.082       .  S
C3578      C3583   1.482       .  S
C3578      C3579   1.412       .  A
C3579      C3580   1.404       .  A
C3579      C3584   1.521       .  S
C3580      C3581   1.411       .  A
C3580      H3585   1.081       .  S
C3581      C3582   1.429       .  A
C3582      C3586   1.522       .  S
C3583      C3588   1.413       .  A
C3583      C3592   1.400       .  A
C3584      F3600   1.382       .  S
C3584      F3601   1.382       .  S
C3584      F3602   1.385       .  S
C3586      F3597   1.383       .  S
C3586      F3598   1.385       .  S
C3586      F3599   1.383   1_545  S
C3588      C3589   1.404       .  A
C3588      C3593   1.521       .  S
C3589      C3590   1.409       .  A
C3589      H3594   1.083       .  S
C3590      C3591   1.422       .  A
C3591      C3592   1.409       .  A
C3591      C3595   1.516       .  S
C3592      H3596   1.083       .  S
C3593      F3606   1.384       .  S
C3593      F3607   1.382       .  S
C3593      F3608   1.382       .  S
C3595      F3603   1.383       .  S
C3595      F3604   1.383       .  S
C3595      F3605   1.385       .  S
C3609      C3610   1.402       .  A
C3609      C3614   1.413       .  A
C3609      H3619   1.083       .  S
C3610      C3615   1.486       .  S
C3610      C3611   1.410       .  A
C3611      C3612   1.404       .  A
C3611      C3616   1.521       .  S
C3612      C3613   1.414       .  A
C3612      H3617   1.081       .  S
C3613      C3614   1.428       .  A
C3614      C3618   1.520       .  S
C3615      C3620   1.416       .  A
C3615      C3624   1.401       .  A
C3616      F3632   1.382       .  S
C3616      F3633   1.382       .  S
C3616      F3634   1.384       .  S
C3618      F3629   1.385       .  S
C3618      F3630   1.384       .  S
C3618      F3631   1.383       .  S
C3620      C3621   1.406       .  A
C3620      C3625   1.519       .  S
C3621      C3622   1.405       .  A
C3621      H3626   1.083       .  S
C3622      C3623   1.422       .  A
C3623      C3624   1.408       .  A
C3623      C3627   1.519       .  S
C3624      H3628   1.083       .  S
C3625      F3638   1.385       .  S
C3625      F3639   1.382       .  S
C3625      F3640   1.382       .  S
C3627      F3635   1.383       .  S
C3627      F3636   1.383       .  S
C3627      F3637   1.385       .  S
C3641      C3642   1.403       .  A
C3641      C3646   1.405       .  A
C3641      H3651   1.084       .  S
C3642      C3647   1.485       .  S
C3642      C3643   1.417       .  A
C3643      C3644   1.407       .  A
C3643      C3648   1.519       .  S
C3644      C3645   1.403       .  A
C3644      H3649   1.083       .  S
C3645      C3646   1.416       .  A
C3646      C3650   1.519       .  S
C3647      C3652   1.415       .  A
C3647      C3656   1.399       .  A
C3648      F3664   1.381       .  S
C3648      F3665   1.383       .  S
C3648      F3666   1.385       .  S
C3650      F3661   1.385       .  S
C3650      F3662   1.383       .  S
C3650      F3663   1.382       .  S
C3652      C3653   1.406       .  A
C3652      C3657   1.516       .  S
C3653      C3654   1.409       .  A
C3653      H3658   1.084       .  S
C3654      C3655   1.429       .  A
C3655      C3656   1.402       .  A
C3655      C3659   1.524       .  S
C3656      H3660   1.083       .  S
C3657      F3670   1.384       .  S
C3657      F3671   1.383       .  S
C3657      F3672   1.383       .  S
C3659      F3667   1.385       .  S
C3659      F3668   1.383       .  S
C3659      F3669   1.384       .  S
C3673      C3674   1.404       .  A
C3673      C3678   1.411       .  A
C3673      H3683   1.083       .  S
C3674      C3679   1.481       .  S
C3674      C3675   1.418       .  A
C3675      C3676   1.399       .  A
C3675      C3680   1.524       .  S
C3676      C3677   1.401       .  A
C3676      H3681   1.084       .  S
C3677      C3678   1.416       .  A
C3678      C3682   1.517       .  S
C3679      C3684   1.416       .  A
C3679      C3688   1.403       .  A
C3680      F3696   1.382       .  S
C3680      F3697   1.383       .  S
C3680      F3698   1.385       .  S
C3682      F3693   1.383       .  S
C3682      F3694   1.384       .  S
C3682      F3695   1.382       .  S
C3684      C3685   1.404       .  A
C3684      C3689   1.519       .  S
C3685      C3686   1.400       .  A
C3685      H3690   1.083       .  S
C3686      C3687   1.412       .  A
C3687      C3688   1.406       .  A
C3687      C3691   1.517       .  S
C3688      H3692   1.083       .  S
C3689      F3702   1.385       .  S
C3689      F3703   1.382       .  S
C3689      F3704   1.383       .  S
C3691      F3699   1.385       .  S
C3691      F3700   1.383       .  S
C3691      F3701   1.383       .  S
C3705      C3706   1.402       .  A
C3705      C3710   1.418       .  A
C3705      H3715   1.083       .  S
C3706      C3711   1.494       .  S
C3706      C3707   1.414       .  A
C3707      C3708   1.406       .  A
C3707      C3712   1.523       .  S
C3708      C3709   1.412       .  A
C3708      H3713   1.081       .  S
C3709      C3710   1.431       .  A
C3710      C3714   1.519       .  S
C3711      C3716   1.418       .  A
C3711      C3720   1.402       .  A
C3712      F3728   1.382       .  S
C3712      F3729   1.383       .  S
C3712      F3730   1.384       .  S
C3714      F3725   1.383       .  S
C3714      F3726   1.385       .  S
C3714      F3727   1.383       .  S
C3716      C3717   1.412       .  A
C3716      C3721   1.517       .  S
C3717      C3718   1.404       .  A
C3717      H3722   1.082       .  S
C3718      C3719   1.417       .  A
C3719      C3720   1.408       .  A
C3719      C3723   1.519       .  S
C3720      H3724   1.083       .  S
C3721      F3734   1.385       .  S
C3721      F3735   1.383       .  S
C3721      F3736   1.382       .  S
C3723      F3731   1.384       .  S
C3723      F3732   1.384       .  S
C3723      F3733   1.382       .  S
C3737      C3738   1.399       .  A
C3737      C3742   1.404       .  A
C3737      H3747   1.083       .  S
C3738      C3743   1.480       .  S
C3738      C3739   1.412       .  A
C3739      C3740   1.406       .  A
C3739      C3744   1.520       .  S
C3740      C3741   1.411       .  A
C3740      H3745   1.082       .  S
C3741      C3742   1.425       .  A
C3742      C3746   1.521       .  S
C3743      C3748   1.417       .  A
C3743      C3752   1.401       .  A
C3744      F3760   1.382       .  S
C3744      F3761   1.382       .  S
C3744      F3762   1.385       .  S
C3746      F3757   1.385       .  S
C3746      F3758   1.383       .  S
C3746      F3759   1.383       .  S
C3748      C3749   1.406       .  A
C3748      C3753   1.519       .  S
C3749      C3750   1.402       .  A
C3749      H3754   1.083       .  S
C3750      C3751   1.417       .  A
C3751      C3752   1.402       .  A
C3751      C3755   1.520       .  S
C3752      H3756   1.083       .  S
C3753      F3766   1.384       .  S
C3753      F3767   1.382       .  S
C3753      F3768   1.382       .  S
C3755      F3763   1.382       .  S
C3755      F3764   1.384       .  S
C3755      F3765   1.385       .  S
C3769      C3770   1.402       .  A
C3769      C3774   1.407       .  A
C3769      H3779   1.083       .  S
C3770      C3775   1.488       .  S
C3770      C3771   1.418       .  A
C3771      C3772   1.407       .  A
C3771      C3776   1.519       .  S
C3772      C3773   1.404       .  A
C3772      H3777   1.083       .  S
C3773      C3774   1.419       .  A
C3774      C3778   1.520       .  S
C3775      C3780   1.416       .  A
C3775      C3784   1.400       .  A
C3776      F3792   1.382       .  S
C3776      F3793   1.383       .  S
C3776      F3794   1.385       .  S
C3778      F3789   1.384       .  S
C3778      F3790   1.385       .  S
C3778      F3791   1.382       .  S
C3780      C3781   1.409       .  A
C3780      C3785   1.520       .  S
C3781      C3782   1.409       .  A
C3781      H3786   1.082       .  S
C3782      C3783   1.424       .  A
C3783      C3784   1.407       .  A
C3783      C3787   1.518       .  S
C3784      H3788   1.083       .  S
C3785      F3798   1.384       .  S
C3785      F3799   1.381       .  S
C3785      F3800   1.383       .  S
C3787      F3795   1.381       .  S
C3787      F3796   1.384       .  S
C3787      F3797   1.385       .  S
C3801      C3802   1.404       .  A
C3801      C3806   1.401       .  A
C3801      H3811   1.083       .  S
C3802      C3807   1.474       .  S
C3802      C3803   1.416       .  A
C3803      C3804   1.403       .  A
C3803      C3808   1.517       .  S
C3804      C3805   1.401       .  A
C3804      H3809   1.083       .  S
C3805      C3806   1.413       .  A
C3806      C3810   1.520       .  S
C3807      C3812   1.413       .  A
C3807      C3816   1.402       .  A
C3808      F3824   1.383       .  S
C3808      F3825   1.382       .  S
C3808      F3826   1.383       .  S
C3810      F3821   1.385       .  S
C3810      F3822   1.382       .  S
C3810      F3823   1.384       .  S
C3812      C3813   1.405       .  A
C3812      C3817   1.517       .  S
C3813      C3814   1.402       .  A
C3813      H3818   1.083       .  S
C3814      C3815   1.412       .  A
C3815      C3816   1.401       .  A
C3815      C3819   1.519       .  S
C3816      H3820   1.083       .  S
C3817      F3830   1.384       .  S
C3817      F3831   1.382       .  S
C3817      F3832   1.383       .  S
C3819      F3827   1.383       .  S
C3819      F3828   1.383       .  S
C3819      F3829   1.384       .  S
C3833      C3834   1.401       .  A
C3833      C3838   1.406       .  A
C3833      H3843   1.084       .  S
C3834      C3839   1.482       .  S
C3834      C3835   1.412       .  A
C3835      C3836   1.407       .  A
C3835      C3840   1.517       .  S
C3836      C3837   1.408       .  A
C3836      H3841   1.082       .  S
C3837      C3838   1.424       .  A
C3838      C3842   1.521       .  S
C3839      C3844   1.417       .  A
C3839      C3848   1.401       .  A
C3840      F3856   1.382       .  S
C3840      F3857   1.383       .  S
C3840      F3858   1.384       .  S
C3842      F3853   1.384       .  S
C3842      F3854   1.385       .  S
C3842      F3855   1.382       .  S
C3844      C3845   1.407       .  A
C3844      C3849   1.516       .  S
C3845      C3846   1.405       .  A
C3845      H3850   1.084       .  S
C3846      C3847   1.422       .  A
C3847      C3848   1.402       .  A
C3847      C3851   1.521       .  S
C3848      H3852   1.084       .  S
C3849      F3862   1.384       .  S
C3849      F3863   1.383       .  S
C3849      F3864   1.382       .  S
C3851      F3859   1.383       .  S
C3851      F3860   1.382       .  S
C3851      F3861   1.385       .  S
C3865      C3866   1.403       .  A
C3865      C3870   1.409       .  A
C3865      H3875   1.083       .  S
C3866      C3871   1.478       .  S
C3866      C3867   1.418       .  A
C3867      C3868   1.399       .  A
C3867      C3872   1.523       .  S
C3868      C3869   1.399       .  A
C3868      H3873   1.084       .  S
C3869      C3870   1.416       .  A
C3870      C3874   1.519       .  S
C3871      C3876   1.413       .  A
C3871      C3880   1.400       .  A
C3872      F3888   1.382       .  S
C3872      F3889   1.382       .  S
C3872      F3890   1.385       .  S
C3874      F3885   1.384       .  S
C3874      F3886   1.382       .  S
C3874      F3887   1.383       .  S
C3876      C3877   1.404       .  A
C3876      C3881   1.519       .  S
C3877      C3878   1.404       .  A
C3877      H3882   1.084       .  S
C3878      C3879   1.419       .  A
C3879      C3880   1.406       .  A
C3879      C3883   1.518       .  S
C3880      H3884   1.084       .  S
C3881      F3894   1.384       .  S
C3881      F3895   1.383       .  S
C3881      F3896   1.383       .  S
C3883      F3891   1.385       .  S
C3883      F3892   1.383       .  S
C3883      F3893   1.383       .  S
C3897      C3898   1.399       .  A
C3897      C3902   1.403       .  A
C3897      H3907   1.083       .  S
C3898      C3903   1.474       .  S
C3898      C3899   1.413       .  A
C3899      C3900   1.402       .  A
C3899      C3904   1.520       .  S
C3900      C3901   1.405       .  A
C3900      H3905   1.083       .  S
C3901      C3902   1.421       .  A
C3902      C3906   1.521       .  S
C3903      C3908   1.412       .  A
C3903      C3912   1.401       .  A
C3904      F3920   1.382       .  S
C3904      F3921   1.382       .  S
C3904      F3922   1.385       .  S
C3906      F3917   1.385       .  S
C3906      F3918   1.383       .  S
C3906      F3919   1.384       .  S
C3908      C3909   1.403       .  A
C3908      C3913   1.520       .  S
C3909      C3910   1.406       .  A
C3909      H3914   1.083       .  S
C3910      C3911   1.418       .  A
C3911      C3912   1.404       .  A
C3911      C3915   1.519       .  S
C3912      H3916   1.083       .  S
C3913      F3926   1.385       .  S
C3913      F3927   1.382       .  S
C3913      F3928   1.382       .  S
C3915      F3923   1.382       .  S
C3915      F3924   1.383       .  S
C3915      F3925   1.385       .  S
C3929      C3930   1.398       .  A
C3929      C3934   1.410       .  A
C3929      H3939   1.082       .  S
C3930      C3935   1.479       .  S
C3930      C3931   1.412       .  A
C3931      C3932   1.401       .  A
C3931      C3936   1.522       .  S
C3932      C3933   1.410       .  A
C3932      H3937   1.082       .  S
C3933      C3934   1.427       .  A
C3934      C3938   1.520       .  S
C3935      C3940   1.413       .  A
C3935      C3944   1.400       .  A
C3936      F3952   1.382       .  S
C3936      F3953   1.383       .  S
C3936      F3954   1.385       .  S
C3938      F3949   1.385       .  S
C3938      F3950   1.383       .  S
C3938      F3951   1.382       .  S
C3940      C3941   1.400       .  A
C3940      C3945   1.521       .  S
C3941      C3942   1.405       .  A
C3941      H3946   1.084       .  S
C3942      C3943   1.424       .  A
C3943      C3944   1.409       .  A
C3943      C3947   1.520       .  S
C3944      H3948   1.083       .  S
C3945      F3958   1.385       .  S
C3945      F3959   1.382       .  S
C3945      F3960   1.383       .  S
C3947      F3955   1.385       .  S
C3947      F3956   1.382       .  S
C3947      F3957   1.381       .  S
C3961      C3962   1.404       .  A
C3961      C3966   1.408       .  A
C3961      H3971   1.083       .  S
C3962      C3967   1.488       .  S
C3962      C3963   1.419       .  A
C3963      C3964   1.407       .  A
C3963      C3968   1.518       .  S
C3964      C3965   1.403       .  A
C3964      H3969   1.084       .  S
C3965      C3966   1.418       .  A
C3966      C3970   1.519       .  S
C3967      C3972   1.417       .  A
C3967      C3976   1.401       .  A
C3968      F3984   1.383       .  S
C3968      F3985   1.382       .  S
C3968      F3986   1.383       .  S
C3970      F3981   1.384       .  S
C3970      F3982   1.385       .  S
C3970      F3983   1.382       .  S
C3972      C3973   1.413       .  A
C3972      C3977   1.516       .  S
C3973      C3974   1.404       .  A
C3973      H3978   1.084       .  S
C3974      C3975   1.419       .  A
C3975      C3976   1.405       .  A
C3975      C3979   1.520       .  S
C3976      H3980   1.084       .  S
C3977      F3990   1.384       .  S
C3977      F3991   1.382       .  S
C3977      F3992   1.383       .  S
C3979      F3987   1.382       .  S
C3979      F3988   1.380       .  S
C3979      F3989   1.385       .  S
C3993      C3994   1.402       .  A
C3993      C3998   1.403       .  A
C3993      H4003   1.083       .  S
C3994      C3999   1.486       .  S
C3994      C3995   1.419       .  A
C3995      C3996   1.410       .  A
C3995      C4000   1.519       .  S
C3996      C3997   1.403       .  A
C3996      H4001   1.083       .  S
C3997      C3998   1.414       .  A
C3998      C4002   1.517       .  S
C3999      C4004   1.417       .  A
C3999      C4008   1.401       .  A
C4000      F4016   1.381       .  S
C4000      F4017   1.382       .  S
C4000      F4018   1.385       .  S
C4002      F4013   1.385       .  S
C4002      F4014   1.382       .  S
C4002      F4015   1.380       .  S
C4004      C4005   1.409       .  A
C4004      C4009   1.518       .  S
C4005      C4006   1.407       .  A
C4005      H4010   1.083       .  S
C4006      C4007   1.420       .  A
C4007      C4008   1.403       .  A
C4007      C4011   1.518       .  S
C4008      H4012   1.084       .  S
C4009      F4022   1.385       .  S
C4009      F4023   1.382       .  S
C4009      F4024   1.382       .  S
C4011      F4019   1.385       .  S
C4011      F4020   1.383       .  S
C4011      F4021   1.383       .  S
C4025      C4026   1.402       .  A
C4025      C4030   1.409       .  A
C4025      H4035   1.083       .  S
C4026      C4031   1.486       .  S
C4026      C4027   1.415       .  A
C4027      C4028   1.406       .  A
C4027      C4032   1.520       .  S
C4028      C4029   1.405       .  A
C4028      H4033   1.083       .  S
C4029      C4030   1.420       .  A
C4030      C4034   1.518       .  S
C4031      C4036   1.415       .  A
C4031      C4040   1.401       .  A
C4032      F4048   1.382       .  S
C4032      F4049   1.382       .  S
C4032      F4050   1.384       .  S
C4034      F4045   1.383       .  S
C4034      F4046   1.384       .  S
C4034      F4047   1.382       .  S
C4036      C4037   1.405       .  A
C4036      C4041   1.521       .  S
C4037      C4038   1.406       .  A
C4037      H4042   1.083       .  S
C4038      C4039   1.425       .  A
C4039      C4040   1.411       .  A
C4039      C4043   1.520       .  S
C4040      H4044   1.083       .  S
C4041      F4054   1.384       .  S
C4041      F4055   1.382       .  S
C4041      F4056   1.383       .  S
C4043      F4051   1.385       .  S
C4043      F4052   1.382       .  S
C4043      F4053   1.383       .  S
C4057      C4058   1.397       .  A
C4057      C4062   1.399       .  A
C4057      H4067   1.084       .  S
C4058      C4063   1.478       .  S
C4058      C4059   1.417       .  A
C4059      C4060   1.410       .  A
C4059      C4064   1.518       .  S
C4060      C4061   1.402       .  A
C4060      H4065   1.083       .  S
C4061      C4062   1.416       .  A
C4062      C4066   1.515       .  S
C4063      C4068   1.414       .  A
C4063      C4072   1.403       .  A
C4064      F4080   1.382       .  S
C4064      F4081   1.382       .  S
C4064      F4082   1.384       .  S
C4066      F4077   1.381       .  S
C4066      F4078   1.385       .  S
C4066      F4079   1.381       .  S
C4068      C4069   1.403       .  A
C4068      C4073   1.520       .  S
C4069      C4070   1.403       .  A
C4069      H4074   1.084       .  S
C4070      C4071   1.417       .  A
C4071      C4072   1.408       .  A
C4071      C4075   1.518       .  S
C4072      H4076   1.083       .  S
C4073      F4086   1.382       .  S
C4073      F4087   1.382       .  S
C4073      F4088   1.382       .  S
C4075      F4083   1.384       .  S
C4075      F4084   1.382       .  S
C4075      F4085   1.384       .  S
C4089      C4090   1.404       .  A
C4089      C4094   1.413       .  A
C4089      H4099   1.083       .  S
C4090      C4095   1.479       .  S
C4090      C4091   1.414       .  A
C4091      C4092   1.396       .  A
C4091      C4096   1.525       .  S
C4092      C4093   1.407       .  A
C4092      H4097   1.082       .  S
C4093      C4094   1.421       .  A
C4094      C4098   1.517       .  S
C4095      C4100   1.414       .  A
C4095      C4104   1.403       .  A
C4096      F4112   1.382       .  S
C4096      F4113   1.382       .  S
C4096      F4114   1.385       .  S
C4098      F4109   1.385       .  S
C4098      F4110   1.383       .  S
C4098      F4111   1.382       .  S
C4100      C4101   1.403       .  A
C4100      C4105   1.520       .  S
C4101      C4102   1.403       .  A
C4101      H4106   1.084       .  S
C4102      C4103   1.416       .  A
C4103      C4104   1.408       .  A
C4103      C4107   1.518       .  S
C4104      H4108   1.083       .  S
C4105      F4118   1.385       .  S
C4105      F4119   1.382       .  S
C4105      F4120   1.383       .  S
C4107      F4115   1.385       .  S
C4107      F4116   1.382       .  S
C4107      F4117   1.384       .  S
C4121      C4122   1.403       .  A
C4121      C4126   1.406       .  A
C4121      H4131   1.083       .  S
C4122      C4127   1.478       .  S
C4122      C4123   1.416       .  A
C4123      C4124   1.402       .  A
C4123      C4128   1.520       .  S
C4124      C4125   1.399       .  A
C4124      H4129   1.084       .  S
C4125      C4126   1.411       .  A
C4126      C4130   1.516       .  S
C4127      C4132   1.415       .  A
C4127      C4136   1.403       .  A
C4128      F4144   1.382       .  S
C4128      F4145   1.383       .  S
C4128      F4146   1.385       .  S
C4130      F4141   1.383       .  S
C4130      F4142   1.384       .  S
C4130      F4143   1.384       .  S
C4132      C4133   1.399       .  A
C4132      C4137   1.523       .  S
C4133      C4134   1.403       .  A
C4133      H4138   1.083       .  S
C4134      C4135   1.419       .  A
C4135      C4136   1.410       .  A
C4135      C4139   1.518       .  S
C4136      H4140   1.083       .  S
C4137      F4150   1.384       .  S
C4137      F4151   1.382       .  S
C4137      F4152   1.382       .  S
C4139      F4147   1.384       .  S
C4139      F4148   1.383       .  S
C4139      F4149   1.384       .  S
C4153      C4154   1.402       .  A
C4153      C4158   1.411       .  A
C4153      H4163   1.082       .  S
C4154      C4159   1.488       .  S
C4154      C4155   1.416       .  A
C4155      C4156   1.403       .  A
C4155      C4160   1.522       .  S
C4156      C4157   1.405       .  A
C4156      H4161   1.083       .  S
C4157      C4158   1.424       .  A
C4158      C4162   1.520       .  S
C4159      C4164   1.414       .  A
C4159      C4168   1.400       .  A
C4160      F4176   1.381       .  S
C4160      F4177   1.383       .  S
C4160      F4178   1.385       .  S
C4162      F4173   1.383       .  S
C4162      F4174   1.385       .  S
C4162      F4175   1.382       .  S
C4164      C4165   1.405       .  A
C4164      C4169   1.522       .  S
C4165      C4166   1.411       .  A
C4165      H4170   1.082       .  S
C4166      C4167   1.428       .  A
C4167      C4168   1.411       .  A
C4167      C4171   1.521       .  S
C4168      H4172   1.082       .  S
C4169      F4182   1.385       .  S
C4169      F4183   1.382       .  S
C4169      F4184   1.383       .  S
C4171      F4179   1.385       .  S
C4171      F4180   1.381       .  S
C4171      F4181   1.382       .  S
C4185      C4186   1.400       .  A
C4185      C4190   1.401       .  A
C4185      H4195   1.084       .  S
C4186      C4191   1.485       .  S
C4186      C4187   1.416       .  A
C4187      C4188   1.411       .  A
C4187      C4192   1.517       .  S
C4188      C4189   1.405       .  A
C4188      H4193   1.082       .  S
C4189      C4190   1.422       .  A
C4190      C4194   1.521       .  S
C4191      C4196   1.416       .  A
C4191      C4200   1.399       .  A
C4192      F4208   1.382       .  S
C4192      F4209   1.383       .  S
C4192      F4210   1.385       .  S
C4194      F4205   1.385       .  S
C4194      F4206   1.383       .  S
C4194      F4207   1.381       .  S
C4196      C4197   1.407       .  A
C4196      C4201   1.515       .  S
C4197      C4198   1.407       .  A
C4197      H4202   1.085       .  S
C4198      C4199   1.426       .  A
C4199      C4200   1.404       .  A
C4199      C4203   1.520       .  S
C4200      H4204   1.084       .  S
C4201      F4214   1.384       .  S
C4201      F4215   1.383       .  S
C4201      F4216   1.383       .  S
C4203      F4211   1.386       .  S
C4203      F4212   1.382       .  S
C4203      F4213   1.379       .  S
C4217      C4218   1.406       .  A
C4217      C4222   1.411       .  A
C4217      H4227   1.083   1_565  S
C4218      C4223   1.495   1_565  S
C4218      C4219   1.419       .  A
C4219      C4220   1.410       .  A
C4219      C4224   1.519       .  S
C4220      C4221   1.402       .  A
C4220      H4225   1.083       .  S
C4221      C4222   1.412       .  A
C4222      C4226   1.515       .  S
C4223      C4228   1.417       .  A
C4223      C4232   1.405       .  A
C4224      F4240   1.382       .  S
C4224      F4241   1.383       .  S
C4224      F4242   1.385       .  S
C4226      F4237   1.384       .  S
C4226      F4238   1.383       .  S
C4226      F4239   1.383       .  S
C4228      C4229   1.404       .  A
C4228      C4233   1.521       .  S
C4229      C4230   1.407       .  A
C4229      H4234   1.083       .  S
C4230      C4231   1.423       .  A
C4231      C4232   1.416       .  A
C4231      C4235   1.518       .  S
C4232      H4236   1.082       .  S
C4233      F4246   1.385       .  S
C4233      F4247   1.382       .  S
C4233      F4248   1.383   1_545  S
C4235      F4243   1.383       .  S
C4235      F4244   1.384       .  S
C4235      F4245   1.385       .  S
