geometry optimzed in LAMMPS
_audit_creation_date              2020-11-30 
_audit_creation_method            'lammps2cif' 
_symmetry_space_group_name_H-M    'P1' 
_symmetry_Int_Tables_number       1 
_symmetry_cell_setting            triclinic 
loop_ 
_symmetry_equiv_pos_as_xyz 
  x,y,z 
_cell_length_a                    39.38818516 
_cell_length_b                    39.284015479658 
_cell_length_c                    41.61884077432936 
_cell_angle_alpha                 89.70894814121046 
_cell_angle_beta                  89.35394404342304 
_cell_angle_gamma                 120.83570187956325 
loop_ 
_atom_site_label 
_atom_site_type_symbol 
_atom_site_fract_x 
_atom_site_fract_y 
_atom_site_fract_z 
_atom_site_charge 
O1          O  0.28959727  0.51197943  0.63090496    -0.82900
C2          C  0.42791435  0.54010913  0.55919882     0.96400
O3          O  0.40460373  0.55251441  0.55497191    -0.72100
O4          O  0.32834719  0.50352029  0.54529339    -0.75600
Al5        Al  0.35775797  0.54505536  0.57500728     1.49000
C6          C  0.29270762  0.47635167  0.54973753     0.91700
O7          O  0.31618695  0.43283423  0.61204361    -0.81900
O8          O  0.38179350  0.51756229  0.66807864    -0.75400
Al9        Al  0.30576981  0.47448157  0.62052992     1.90100
O10         O  0.37928173  0.46329719  0.62497497    -0.74500
O11         O  0.42510780  0.57537914  0.62764533    -0.74300
O12         O  0.42540409  0.52125328  0.58455534    -0.80000
O13         O  0.38651845  0.59032319  0.60113443    -0.78200
O14         O  0.35422984  0.51247360  0.60667800    -1.14300
O15         O  0.31166772  0.54605590  0.58641254    -0.73500
C16         C  0.29038872  0.53705856  0.61128235     0.97200
C17         C  0.34733471  0.43222651  0.61777983     0.93600
Al18       Al  0.39854554  0.51855226  0.62457863     1.55600
O19         O  0.28059985  0.46439550  0.57832929    -0.78200
C20         C  0.41500236  0.60005408  0.61991725     0.97700
C21         C  0.34916681  0.49609657  0.68234086     0.92600
O22         O  0.31851548  0.47566387  0.66587056    -0.83500
O23         O  0.22644749  0.74562291  0.61388334    -0.82900
C24         C  0.11729847  0.59721199  0.56388956     0.96400
O25         O  0.14154896  0.63132979  0.55327527    -0.72100
O26         O  0.18963744  0.70681261  0.54940618    -0.75600
Al27       Al  0.18899118  0.66674991  0.57368947     1.49000
C28         C  0.17789043  0.73069356  0.55204495     0.91700
O29         O  0.11335670  0.69411176  0.62807985    -0.81900
O30         O  0.14391790  0.64703993  0.67268940    -0.75400
Al31       Al  0.16960502  0.71627291  0.62039311     1.90100
O32         O  0.08775019  0.62920418  0.62727730    -0.74500
O33         O  0.17561832  0.61470800  0.63823386    -0.74300
O34         O  0.11430565  0.58999842  0.59383546    -0.80000
O35         O  0.19753616  0.62566591  0.58878342    -0.78200
O36         O  0.16382912  0.66954881  0.60851886    -1.14300
O37         O  0.23806367  0.70269308  0.58994441    -0.73500
C38         C  0.25034023  0.73605411  0.60240090     0.97200
C39         C  0.08362942  0.65904301  0.62830163     0.93600
Al40       Al  0.13302401  0.62442165  0.63099168     1.55600
O41         O  0.16234470  0.73262399  0.57813317    -0.78200
C42         C  0.19746832  0.61306408  0.61669364     0.97700
C43         C  0.16473395  0.68127946  0.68376415     0.92600
O44         O  0.17943421  0.71088394  0.66493930    -0.83500
O45         O  0.52324702  0.79365510  0.62578740    -0.82900
C46         C  0.48634393  0.89522895  0.55370143     0.96400
O47         O  0.47958437  0.86090536  0.54742517    -0.72100
O48         O  0.52901919  0.83542093  0.54161744    -0.75600
Al49       Al  0.48486618  0.82084246  0.56890788     1.49000
C50         C  0.56098721  0.83675842  0.54682648     0.91700
O51         O  0.59107660  0.90480448  0.60938834    -0.81900
O52         O  0.49470932  0.86180205  0.66256412    -0.75400
Al53       Al  0.55460863  0.84897521  0.61612862     1.90100
O54         O  0.55165845  0.92509386  0.62684588    -0.74500
O55         O  0.44315679  0.85097188  0.61693392    -0.74300
O56         O  0.50030918  0.91082492  0.58058212    -0.80000
O57         O  0.43534797  0.80068211  0.58951763    -0.78200
O58         O  0.51283755  0.85146368  0.60147155    -1.14300
O59         O  0.48306084  0.77404480  0.58492575    -0.73500
C60         C  0.49580628  0.76627649  0.60997860     0.97200
C61         C  0.58584316  0.93210390  0.61965725     0.93600
Al62       Al  0.49905486  0.88407791  0.62015301     1.55600
O63         O  0.57241992  0.83946147  0.57537398    -0.78200
C64         C  0.42077187  0.81816909  0.60418871     0.97700
C65         C  0.52001666  0.85655917  0.67660572     0.92600
O66         O  0.54710330  0.85650086  0.66027782    -0.83500
O67         O  0.23543483  0.50583044  0.38073187    -0.82900
C68         C  0.13024229  0.53449015  0.45133490     0.96400
O69         O  0.16036568  0.53189930  0.45504507    -0.72100
O70         O  0.20933756  0.50642465  0.44807631    -0.75600
Al71       Al  0.20166903  0.54488859  0.42586114     1.49000
C72         C  0.19869541  0.47034105  0.44504224     0.91700
O73         O  0.12072385  0.43493861  0.37747391    -0.81900
O74         O  0.12821413  0.49883644  0.33957046    -0.75400
Al75       Al  0.17766022  0.47450581  0.38005383     1.90100
O76         O  0.09294205  0.46672056  0.39780564    -0.74500
O77         O  0.16371567  0.56926934  0.36659288    -0.74300
O78         O  0.11962780  0.53632180  0.42315315    -0.80000
O79         O  0.20194417  0.59091583  0.40876819    -0.78200
O80         O  0.16996740  0.51210812  0.39640288    -1.14300
O81         O  0.24789142  0.56196411  0.40155573    -0.73500
C82         C  0.26002855  0.54050002  0.39025348     0.97200
C83         C  0.09058979  0.43508858  0.38884581     0.93600
Al84       Al  0.12972493  0.51728493  0.38296052     1.55600
O85         O  0.17795109  0.45105466  0.42129781    -0.78200
C86         C  0.19051602  0.59737110  0.38223460     0.97700
C87         C  0.15341956  0.49624064  0.32233660     0.92600
O88         O  0.18012745  0.49329398  0.33639583    -0.83500
O89         O  0.27371598  0.79091051  0.36186435    -0.82900
C90         C  0.39908661  0.88708533  0.44775835     0.96400
O91         O  0.37171116  0.85141787  0.45110733    -0.72100
O92         O  0.29605483  0.82190568  0.45151464    -0.75600
Al93       Al  0.33059016  0.81261541  0.42577858     1.49000
C94         C  0.26316551  0.81678500  0.44372825     0.91700
O95         O  0.30862776  0.89560941  0.39169331    -0.81900
O96         O  0.36964011  0.86378539  0.33544530    -0.75400
Al97       Al  0.29253216  0.84317070  0.37768349     1.90100
O98         O  0.37030998  0.92233905  0.37375616    -0.74500
O99         O  0.40817028  0.85083892  0.38110641    -0.74300
O100        O  0.40493798  0.90468671  0.42078541    -0.80000
O101        O  0.36512310  0.79763677  0.40752026    -0.78200
O102        O  0.33599841  0.84599600  0.39445141    -1.14300
O103        O  0.28862376  0.76756373  0.40445470    -0.73500
C104        C  0.27209212  0.76230412  0.37737212     0.97200
C105        C  0.34165802  0.92572951  0.38366805     0.93600
Al106      Al  0.38385853  0.88221844  0.37896921     1.55600
O107        O  0.25727214  0.82131822  0.41477942    -0.78200
C108        C  0.39769579  0.81727116  0.39278749     0.97700
C109        C  0.34167921  0.86273941  0.32005573     0.92600
O110        O  0.31410724  0.86299594  0.33549229    -0.83500
O111        O  0.52542753  0.75407141  0.38477233    -0.82900
C112        C  0.50343093  0.61861414  0.44902977     0.96400
O113        O  0.51235737  0.65353164  0.45597543    -0.72100
O114        O  0.53395206  0.72976283  0.45114175    -0.75600
Al115      Al  0.49370595  0.68199750  0.43253082     1.49000
C116        C  0.56939627  0.75511428  0.44478619     0.91700
O117        O  0.59510624  0.71109200  0.37284595    -0.81900
O118        O  0.51403165  0.65400098  0.33553065    -0.75400
Al119      Al  0.55771571  0.72945398  0.38015755     1.90100
O120        O  0.55856368  0.64655500  0.38173231    -0.74500
O121        O  0.45247157  0.61941679  0.37473632    -0.74300
O122        O  0.49693352  0.60747292  0.42004323    -0.80000
O123        O  0.44531476  0.63463763  0.42322186    -0.78200
O124        O  0.51986099  0.68292948  0.39714922    -1.14300
O125        O  0.47265015  0.70978042  0.41241201    -0.73500
C126        C  0.49093703  0.74181245  0.39653833     0.97200
C127        C  0.59159333  0.67714458  0.37612843     0.93600
Al128      Al  0.50702866  0.63629229  0.37943697     1.55600
O129        O  0.58524889  0.75241220  0.41932282    -0.78200
C130        C  0.43020225  0.61464754  0.39837326     0.97700
C131        C  0.52452847  0.68673324  0.32194626     0.92600
O132        O  0.53871244  0.71788590  0.33789626    -0.83500
O133        O  0.70746478  0.55444912  0.33404078    -0.82900
C134        C  0.61905368  0.49898506  0.44696133     0.96400
O135        O  0.61265387  0.50945520  0.41991894    -0.72100
O136        O  0.64515090  0.55895791  0.37063536    -0.75600
Al137      Al  0.63310274  0.50688660  0.37822715     1.49000
C138        C  0.67288808  0.59331170  0.37641957     0.91700
O139        O  0.75555369  0.58135886  0.41662699    -0.81900
O140        O  0.72384986  0.48459722  0.40229274    -0.75400
Al141      Al  0.72552350  0.56269532  0.37707602     1.90100
O142        O  0.72211383  0.53213766  0.44985405    -0.74500
O143        O  0.64883651  0.44098687  0.40735289    -0.74300
O144        O  0.64570773  0.49046278  0.45015431    -0.80000
O145        O  0.60688406  0.45082367  0.38203213    -0.78200
O146        O  0.68124097  0.51999846  0.39348938    -1.14300
O147        O  0.64758755  0.50247830  0.33483853    -0.73500
C148        C  0.67817595  0.52784315  0.31930888     0.97200
C149        C  0.75078199  0.56623884  0.44432930     0.93600
Al150      Al  0.68495503  0.49028191  0.42436591     1.55600
O151        O  0.70628107  0.59900201  0.38496101    -0.78200
C152        C  0.61614427  0.42764429  0.39419697     0.97700
C153        C  0.74579206  0.50040151  0.37787031     0.92600
O154        O  0.74976484  0.53186835  0.36558677    -0.83500
O155        O  0.47629590  0.31526464  0.66670685    -0.82900
C156        C  0.53725502  0.42069826  0.55834559     0.96400
O157        O  0.53024625  0.42825894  0.58622690    -0.72100
O158        O  0.45518379  0.37980153  0.60497435    -0.75600
Al159      Al  0.50419569  0.39445384  0.62362678     1.49000
C160        C  0.42322659  0.34959279  0.61411519     0.91700
O161        O  0.44353473  0.28490651  0.57959460    -0.81900
O162        O  0.55033633  0.32142020  0.60674918    -0.75400
Al163      Al  0.46177537  0.30285395  0.62231656     1.90100
O164        O  0.50195853  0.31113201  0.55579278    -0.74500
O165        O  0.58160101  0.39802216  0.60485194    -0.74300
O166        O  0.53278024  0.38741596  0.55257427    -0.80000
O167        O  0.55342852  0.41325821  0.64368678    -0.78200
O168        O  0.50166068  0.35038011  0.60921893    -1.14300
O169        O  0.48019398  0.37270003  0.66527972    -0.73500
C170        C  0.47742287  0.34398188  0.68145528     0.97200
C171        C  0.46497377  0.28684838  0.55589951     0.93600
Al172      Al  0.53852093  0.35430236  0.58230548     1.55600
O173        O  0.42285761  0.31932800  0.62542588    -0.78200
C174        C  0.58388035  0.41642838  0.63057148     0.97700
C175        C  0.52641066  0.28624013  0.61513858     0.92600
O176        O  0.49069500  0.27516658  0.62110970    -0.83500
O177        O  0.48404638  0.18134995  0.34449635    -0.82900
C178        C  0.51918818  0.12438206  0.45894762     0.96400
O179        O  0.52305347  0.11712912  0.43004068    -0.72100
O180        O  0.45770491  0.09109964  0.39841813    -0.75600
Al181      Al  0.50962678  0.13093430  0.38960899     1.49000
C182        C  0.42605915  0.08959963  0.39106089     0.91700
O183        O  0.43823642  0.17531646  0.42760427    -0.81900
O184        O  0.55063644  0.24404192  0.41411185    -0.75400
Al185      Al  0.46441340  0.17685886  0.38761518     1.90100
O186        O  0.49091759  0.20539569  0.45698898    -0.74500
O187        O  0.57615769  0.19686645  0.42607304    -0.74300
O188        O  0.51138796  0.15117161  0.46502460    -0.80000
O189        O  0.56440861  0.16820202  0.37941619    -0.78200
O190        O  0.50078934  0.16811541  0.40496031    -1.14300
O191        O  0.49718637  0.13439289  0.34576420    -0.73500
C192        C  0.48999988  0.15697354  0.32959817     0.97200
C193        C  0.45559760  0.19522256  0.45207811     0.93600
Al194      Al  0.52943641  0.19656996  0.43772389     1.55600
O195        O  0.42543686  0.12059100  0.38310379    -0.78200
C196        C  0.58873719  0.18979360  0.40054617     0.97700
C197        C  0.53170979  0.25729916  0.39987823     0.92600
O198        O  0.49707514  0.23406561  0.38975854    -0.83500
O199        O  0.82667001  0.54838912  0.67263712    -0.82900
C200        C  0.85471975  0.48482287  0.56029568     0.96400
O201        O  0.86722906  0.48334429  0.58793014    -0.72100
O202        O  0.90766175  0.55189279  0.61768572    -0.75600
Al203      Al  0.86214456  0.50360631  0.62958209     1.49000
C204        C  0.91635583  0.58657593  0.62427145     0.91700
O205        O  0.83667609  0.58288760  0.58453894    -0.81900
O206        O  0.75143283  0.47755018  0.61849883    -0.75400
Al207      Al  0.83150383  0.56286702  0.62848280     1.90100
O208        O  0.78697064  0.52796288  0.56671258    -0.74500
O209        O  0.78560750  0.43771201  0.60168584    -0.74300
O210        O  0.82925029  0.49497318  0.55763169    -0.80000
O211        O  0.82193161  0.45282121  0.64398993    -0.78200
O212        O  0.82873354  0.51817482  0.61578997    -1.14300
O213        O  0.86232096  0.51995108  0.67329889    -0.73500
C214        C  0.84332506  0.53335006  0.68800531     0.97200
C215        C  0.81204265  0.56428023  0.56265728     0.93600
Al216      Al  0.79149782  0.48732229  0.58861605     1.55600
O217        O  0.88939402  0.59422756  0.63078752    -0.78200
C218        C  0.79598227  0.42707221  0.62639178     0.97700
C219        C  0.74607192  0.50335269  0.63156656     0.92600
O220        O  0.77355132  0.53975896  0.63077889    -0.83500
O221        O  0.83552707  0.31801789  0.34139692    -0.82900
C222        C  0.88170077  0.42318422  0.44658474     0.96400
O223        O  0.89379536  0.43231431  0.41780320    -0.72100
O224        O  0.92512781  0.38969273  0.39611790    -0.75600
Al225      Al  0.88569462  0.39902963  0.38045894     1.49000
C226        C  0.92811827  0.36020358  0.38846986     0.91700
O227        O  0.84678326  0.29097272  0.42776174    -0.81900
O228        O  0.76844219  0.31817097  0.40437150    -0.75400
Al229      Al  0.84198127  0.30723577  0.38498775     1.90100
O230        O  0.81251277  0.31289421  0.45286143    -0.74500
O231        O  0.80981379  0.39495128  0.40486356    -0.74300
O232        O  0.85556600  0.38834101  0.45357373    -0.80000
O233        O  0.84954691  0.41249228  0.36266386    -0.78200
O234        O  0.84716184  0.35311182  0.39748328    -1.14300
O235        O  0.88672200  0.37792119  0.33882814    -0.73500
C236        C  0.86021803  0.34760341  0.32474980     0.97200
C237        C  0.82830641  0.29186952  0.45255423     0.93600
Al238      Al  0.81447665  0.35369687  0.42647237     1.55600
O239        O  0.89832586  0.32828423  0.37910497    -0.78200
C240        C  0.82164214  0.41258074  0.37776334     0.97700
C241        C  0.75881977  0.28435860  0.39440377     0.92600
O242        O  0.78487885  0.27560439  0.38832891    -0.83500
O243        O  0.70007357  0.16593836  0.67192164    -0.82900
C244        C  0.60553126  0.12729274  0.56275843     0.96400
O245        O  0.60121643  0.11344585  0.59095376    -0.72100
O246        O  0.64161829  0.10089338  0.63436842    -0.75600
Al247      Al  0.62562501  0.13836214  0.63047018     1.49000
C248        C  0.67102447  0.09792431  0.62621145     0.91700
O249        O  0.75124813  0.20237483  0.59053673    -0.81900
O250        O  0.71322848  0.25215654  0.59825833    -0.75400
Al251      Al  0.71767976  0.18194524  0.62862040     1.90100
O252        O  0.71085052  0.19737333  0.55363939    -0.74500
O253        O  0.63663438  0.21562124  0.59559180    -0.74300
O254        O  0.63408092  0.16122143  0.55533412    -0.80000
O255        O  0.59974611  0.16805058  0.62934741    -0.78200
O256        O  0.67198928  0.17452199  0.61228846    -1.14300
O257        O  0.64150641  0.15807018  0.67319439    -0.73500
C258        C  0.67175582  0.16372973  0.68784073     0.97200
C259        C  0.74469913  0.20523816  0.56144516     0.93600
Al260      Al  0.67389540  0.20388136  0.57884569     1.55600
O261        O  0.70396426  0.12834547  0.61790327    -0.78200
C262        C  0.60631800  0.19799294  0.61334259     0.97700
C263        C  0.73017292  0.26053408  0.62530893     0.92600
O264        O  0.73319090  0.23480649  0.64149303    -0.83500
O265        O  0.74177383  0.53199538  0.11607463    -0.82900
C266        C  0.59344610  0.47763045  0.05854668     0.96400
O267        O  0.62865552  0.49188283  0.04873890    -0.72100
O268        O  0.70677212  0.52825326  0.04846939    -0.75600
Al269      Al  0.66614540  0.48516829  0.07214488     1.49000
C270        C  0.72903361  0.56485204  0.05217025     0.91700
O271        O  0.68315262  0.58623454  0.12468876    -0.81900
O272        O  0.63795076  0.51073645  0.16803327    -0.75400
Al273      Al  0.70923316  0.55592350  0.11902938     1.90100
O274        O  0.61956325  0.54247420  0.11817175    -0.74500
O275        O  0.61271683  0.44502355  0.13653750    -0.74300
O276        O  0.58574173  0.47394295  0.08836821    -0.80000
O277        O  0.62643137  0.43371851  0.08824098    -0.78200
O278        O  0.66494581  0.51252525  0.10565740    -1.14300
O279        O  0.70307154  0.47582786  0.09146704    -0.73500
C280        C  0.73429437  0.49834730  0.10630096     0.97200
C281        C  0.64745029  0.57760065  0.12214598     0.93600
Al282      Al  0.61832634  0.49490924  0.12591462     1.55600
O283        O  0.72710728  0.58091410  0.07764124    -0.78200
C284        C  0.61242070  0.42129552  0.11619626     0.97700
C285        C  0.67153781  0.52551457  0.18014260     0.92600
O286        O  0.70191697  0.54009069  0.16261042    -0.83500
O287        O  0.48548128  0.27558621  0.86238353    -0.82900
C288        C  0.51052454  0.39589782  0.95126913     0.96400
O289        O  0.52196121  0.37132182  0.95263525    -0.72100
O290        O  0.47799448  0.29605548  0.95311080    -0.75600
Al291      Al  0.52060690  0.33208707  0.92629204     1.49000
C292        C  0.45076737  0.26224640  0.94575190     0.91700
O293        O  0.41179933  0.30412722  0.89632031    -0.81900
O294        O  0.50433364  0.37132682  0.83847670    -0.75400
Al295      Al  0.45014366  0.29122331  0.88034369     1.90100
O296        O  0.44539934  0.36622824  0.87876026    -0.74500
O297        O  0.55649903  0.41136224  0.88494303    -0.74300
O298        O  0.49675029  0.40102717  0.92553269    -0.80000
O299        O  0.56901902  0.36831720  0.90645777    -0.78200
O300        O  0.49049619  0.33575085  0.89672769    -1.14300
O301        O  0.52509439  0.29217470  0.90381880    -0.73500
C302        C  0.51387673  0.27582283  0.87668971     0.97200
C303        C  0.41353779  0.33644470  0.88881577     0.93600
Al304      Al  0.49982490  0.38314175  0.88294385     1.55600
O305        O  0.43885685  0.25584239  0.91720327    -0.78200
C306        C  0.58081024  0.40196642  0.89452133     0.97700
C307        C  0.47708936  0.34262852  0.82319033     0.92600
O308        O  0.45059617  0.31318141  0.83880343    -0.83500
O309        O  0.72679728  0.22816418  0.89642519    -0.82900
C310        C  0.57745827  0.11591562  0.94734168     0.96400
O311        O  0.60929600  0.14578159  0.95584546    -0.72100
O312        O  0.68543179  0.19406028  0.95671569    -0.75600
Al313      Al  0.64465730  0.19088071  0.93094267     1.49000
C314        C  0.70720556  0.17919958  0.95691420     0.91700
O315        O  0.67947540  0.11586246  0.88049095    -0.81900
O316        O  0.63073008  0.13555230  0.83887316    -0.75400
Al317      Al  0.69772567  0.17090820  0.88958507     1.90100
O318        O  0.61536549  0.08480871  0.89002745    -0.74500
O319        O  0.59135627  0.16321155  0.86685241    -0.74300
O320        O  0.57052921  0.10844516  0.91779041    -0.80000
O321        O  0.60337749  0.19607974  0.91143618    -0.78200
O322        O  0.64946436  0.16246987  0.90033131    -1.14300
O323        O  0.67942557  0.23867887  0.91028755    -0.73500
C324        C  0.71497716  0.25199118  0.90249771     0.97200
C325        C  0.64638973  0.08408657  0.88390381     0.93600
Al326      Al  0.60587863  0.12614382  0.88025309     1.55600
O327        O  0.70964679  0.16163769  0.93242142    -0.78200
C328        C  0.58965695  0.18893586  0.88339172     0.97700
C329        C  0.66406766  0.16132236  0.82749830     0.92600
O330        O  0.69274931  0.18187511  0.84573107    -0.83500
O331        O  0.77475400  0.52740124  0.89169621    -0.82900
C332        C  0.87756914  0.48772883  0.95103223     0.96400
O333        O  0.85577963  0.50090111  0.96005442    -0.72100
O334        O  0.80839770  0.53029164  0.95967798    -0.75600
Al335      Al  0.80911826  0.48839551  0.93782508     1.49000
C336        C  0.82109748  0.56631337  0.95426733     0.91700
O337        O  0.88849576  0.59027930  0.88147123    -0.81900
O338        O  0.86098630  0.51383111  0.84019981    -0.75400
Al339      Al  0.83189611  0.55605912  0.88785034     1.90100
O340        O  0.91224769  0.55051301  0.88869130    -0.74500
O341        O  0.82351160  0.44743921  0.87533662    -0.74300
O342        O  0.88131896  0.48318234  0.92142451    -0.80000
O343        O  0.80125683  0.43826325  0.92478257    -0.78200
O344        O  0.83596091  0.51533800  0.90278652    -1.14300
O345        O  0.76035593  0.47327883  0.91913769    -0.73500
C346        C  0.74974760  0.49337510  0.90298597     0.97200
C347        C  0.91735283  0.58471583  0.88466319     0.93600
Al348      Al  0.86690252  0.50039503  0.88306440     1.55600
O349        O  0.83832120  0.58191130  0.92807611    -0.78200
C350        C  0.80246321  0.42418205  0.89789352     0.97700
C351        C  0.84108367  0.52693581  0.82751856     0.92600
O352        O  0.82379778  0.53960915  0.84471919    -0.83500
O353        O  0.50267401  0.22542831  0.13655699    -0.82900
C354        C  0.51607111  0.11116073  0.06390254     0.96400
O355        O  0.53903125  0.14812618  0.06347460    -0.72100
O356        O  0.49106302  0.17389903  0.05283392    -0.75600
Al357      Al  0.53229811  0.18854862  0.08180884     1.49000
C358        C  0.46562935  0.18407572  0.05541668     0.91700
O359        O  0.41922161  0.11842038  0.11748334    -0.81900
O360        O  0.50900132  0.14169887  0.17197692    -0.75400
Al361      Al  0.46267205  0.17122810  0.12610013     1.90100
O362        O  0.44720724  0.08662384  0.13669318    -0.74500
O363        O  0.55928350  0.14667207  0.12816611    -0.74300
O364        O  0.49510208  0.09430377  0.08873275    -0.80000
O365        O  0.57585165  0.20540207  0.10939703    -0.78200
O366        O  0.49875640  0.15980930  0.11274100    -1.14300
O367        O  0.53428409  0.23685516  0.09100667    -0.73500
C368        C  0.52823357  0.24983254  0.11656074     0.97200
C369        C  0.41695115  0.08666681  0.12723388     0.93600
Al370      Al  0.50221860  0.12037056  0.12996923     1.55600
O371        O  0.45451246  0.18761946  0.08339325    -0.78200
C372        C  0.58397240  0.18346751  0.12588339     0.97700
C373        C  0.48682788  0.15088416  0.18698517     0.92600
O374        O  0.46369702  0.15767089  0.17103145    -0.83500
O375        O  0.77434843  0.27419523  0.14756767    -0.82900
C376        C  0.86680148  0.39771470  0.05747029     0.96400
O377        O  0.82997780  0.37327572  0.05658957    -0.72100
O378        O  0.79641849  0.29685140  0.05655793    -0.75600
Al379      Al  0.79187949  0.33247748  0.08434118     1.49000
C380        C  0.79246472  0.26397751  0.06359306     0.91700
O381        O  0.87569650  0.30671453  0.11052602    -0.81900
O382        O  0.84939451  0.37122211  0.16854829    -0.75400
Al383      Al  0.82469957  0.29224428  0.12807601     1.90100
O384        O  0.90450361  0.36756865  0.12906296    -0.74500
O385        O  0.83855537  0.41178215  0.12238250    -0.74300
O386        O  0.88662646  0.40098494  0.08215653    -0.80000
O387        O  0.78023066  0.36782911  0.10565406    -0.78200
O388        O  0.82751312  0.33619194  0.11196419    -1.14300
O389        O  0.74833300  0.29159682  0.10878624    -0.73500
C390        C  0.74492874  0.27332539  0.13499905     0.97200
C391        C  0.90653764  0.33847393  0.11861445     0.93600
Al392      Al  0.86631408  0.38355653  0.12462997     1.55600
O393        O  0.80012817  0.25777200  0.09160781    -0.78200
C394        C  0.80393337  0.40219783  0.11511574     0.97700
C395        C  0.84903158  0.34338698  0.18420052     0.92600
O396        O  0.84706247  0.31453912  0.16919911    -0.83500
O397        O  0.30548322  0.47855525  0.83943470    -0.82900
C398        C  0.39786520  0.51944402  0.95512240     0.96400
O399        O  0.41028189  0.52366707  0.92639844    -0.72100
O400        O  0.36975414  0.45573760  0.89468624    -0.75600
Al401      Al  0.38165579  0.50779377  0.88577670     1.49000
C402        C  0.33902726  0.42314021  0.88822195     0.91700
O403        O  0.26247209  0.43211322  0.92322931    -0.81900
O404        O  0.30179470  0.54035780  0.91369912    -0.75400
Al405      Al  0.28886006  0.45888538  0.88320411     1.90100
O406        O  0.28791861  0.48276778  0.95529880    -0.74500
O407        O  0.37812692  0.57439247  0.92038467    -0.74300
O408        O  0.36287311  0.51065723  0.96026607    -0.80000
O409        O  0.39761549  0.56125101  0.87503311    -0.78200
O410        O  0.33405154  0.49679365  0.90099993    -1.14300
O411        O  0.36728206  0.49590910  0.84154905    -0.73500
C412        C  0.33780176  0.48855303  0.82498529     0.97200
C413        C  0.26161620  0.44775071  0.94949041     0.93600
Al414      Al  0.33306671  0.52435442  0.93430586     1.55600
O415        O  0.30735240  0.42155220  0.87962107    -0.78200
C416        C  0.39702888  0.58598036  0.89391808     0.97700
C417        C  0.27001895  0.52098741  0.89879103     0.92600
O418        O  0.26190991  0.48892022  0.88512262    -0.83500
O419        O  0.13923699  0.46312733  0.16374508    -0.82900
C420        C  0.09317737  0.51557381  0.05469473     0.96400
O421        O  0.08051462  0.50577607  0.08333428    -0.72100
O422        O  0.07041246  0.45176243  0.12777743    -0.75600
Al423      Al  0.10813553  0.50727069  0.12225584     1.49000
C424        C  0.06892829  0.42002197  0.11921572     0.91700
O425        O  0.17074133  0.44807502  0.07947093    -0.81900
O426        O  0.21975035  0.53231417  0.08194578    -0.75400
Al427      Al  0.15303600  0.46125152  0.11911612     1.90100
O428        O  0.15866401  0.47946964  0.04317668    -0.74500
O429        O  0.18556944  0.57411154  0.08508660    -0.74300
O430        O  0.12717202  0.52291994  0.04692361    -0.80000
O431        O  0.13955390  0.56388598  0.12023658    -0.78200
O432        O  0.14343002  0.49785745  0.10274758    -1.14300
O433        O  0.12991963  0.51254742  0.16449426    -0.73500
C434        C  0.13646908  0.48877568  0.17969223     0.97200
C435        C  0.16944875  0.45540243  0.05008394     0.93600
Al436      Al  0.17016630  0.52462656  0.06753117     1.55600
O437        O  0.09986882  0.41953218  0.11095613    -0.78200
C438        C  0.17082997  0.58711790  0.10489691     0.97700
C439        C  0.23149622  0.52691510  0.10869091     0.92600
O440        O  0.20682944  0.50134670  0.12865657    -0.83500
O441        O  0.17324033  0.70981567  0.84189951    -0.82900
C442        C  0.10734958  0.60263161  0.94971960     0.96400
O443        O  0.10386206  0.59493643  0.91995880    -0.72100
O444        O  0.08508125  0.63508770  0.88029398    -0.75600
Al445      Al  0.12729664  0.62573340  0.88076456     1.49000
C446        C  0.08210190  0.66552365  0.88055863     0.91700
O447        O  0.16509270  0.74124658  0.92700657    -0.81900
O448        O  0.23360469  0.70262471  0.91880558    -0.75400
Al449      Al  0.16767333  0.71884968  0.88636639     1.90100
O450        O  0.18608812  0.71280594  0.95915802    -0.74500
O451        O  0.18763859  0.62575158  0.92567805    -0.74300
O452        O  0.13411973  0.63620335  0.95921498    -0.80000
O453        O  0.16529007  0.60857969  0.87792523    -0.78200
O454        O  0.15925730  0.67167813  0.90120787    -1.14300
O455        O  0.14315112  0.64579106  0.83756672    -0.73500
C456        C  0.16124582  0.67973293  0.82460646     0.97200
C457        C  0.17862218  0.73957208  0.95381147     0.93600
Al458      Al  0.18283433  0.66955823  0.93705810     1.55600
O459        O  0.11216555  0.70006768  0.88225437    -0.78200
C460        C  0.18318274  0.60517186  0.90145999     0.97700
C461        C  0.24703606  0.73396909  0.90197783     0.92600
O462        O  0.22432406  0.74391327  0.88896507    -0.83500
O463        O  0.53989137  0.84285773  0.83308301    -0.82900
C464        C  0.49119298  0.88998271  0.94347377     0.96400
O465        O  0.49268195  0.89951421  0.91411877    -0.72100
O466        O  0.54704251  0.91557085  0.86965283    -0.75600
Al467      Al  0.49473924  0.87508490  0.87428287     1.49000
C468        C  0.58108595  0.92128161  0.87402763     0.91700
O469        O  0.56804919  0.82743686  0.91513741    -0.81900
O470        O  0.46841528  0.76581864  0.90927563    -0.75400
Al471      Al  0.54775785  0.83655304  0.87667790     1.90100
O472        O  0.52362457  0.81654561  0.95118864    -0.74500
O473        O  0.43097709  0.80459239  0.91664452    -0.74300
O474        O  0.49090473  0.85887832  0.95143373    -0.80000
O475        O  0.43949743  0.84151194  0.87503402    -0.78200
O476        O  0.50793530  0.84197863  0.89328465    -1.14300
O477        O  0.49318283  0.85652952  0.83124873    -0.73500
C478        C  0.51629291  0.84810630  0.81704900     0.97200
C479        C  0.55550566  0.81898878  0.94348852     0.93600
Al480      Al  0.48135676  0.81423756  0.92848128     1.55600
O481        O  0.58643297  0.89271983  0.88048324    -0.78200
C482        C  0.41701721  0.81681207  0.89570929     0.97700
C483        C  0.48142021  0.75532045  0.88572302     0.92600
O484        O  0.51278349  0.78023676  0.87063537    -0.83500
O485        O  0.30871527  0.83333497  0.16371070    -0.82900
C486        C  0.40963337  0.88838151  0.05179114     0.96400
O487        O  0.41758443  0.89911037  0.08055193    -0.72100
O488        O  0.37231122  0.92573203  0.10608983    -0.75600
Al489      Al  0.38529627  0.88728596  0.11916054     1.49000
C490        C  0.34236419  0.92619434  0.11698681     0.91700
O491        O  0.27229736  0.84133169  0.08040286    -0.81900
O492        O  0.30589549  0.76811424  0.09422303    -0.75400
Al493      Al  0.29381226  0.83865475  0.12103378     1.90100
O494        O  0.29840712  0.81514281  0.04941417    -0.74500
O495        O  0.38290308  0.81269701  0.09232933    -0.74300
O496        O  0.37573375  0.86023788  0.04518056    -0.80000
O497        O  0.40173418  0.85215973  0.13420619    -0.78200
O498        O  0.33969269  0.84743034  0.10402813    -1.14300
O499        O  0.36655272  0.88652493  0.16209109    -0.73500
C500        C  0.33791503  0.86005335  0.17842806     0.97200
C501        C  0.27340484  0.82580857  0.05408842     0.93600
Al502      Al  0.34083823  0.81702854  0.07301491     1.55600
O503        O  0.31177480  0.89448009  0.12664171    -0.78200
C504        C  0.40121965  0.82435345  0.11867813     0.97700
C505        C  0.27372505  0.75676202  0.10895834     0.92600
O506        O  0.26543690  0.78172962  0.11930820    -0.83500
O507        O  0.53137272  0.71284007  0.16503103    -0.82900
C508        C  0.47089338  0.60571754  0.06234796     0.96400
O509        O  0.46634140  0.59734221  0.09218254    -0.72100
O510        O  0.52823035  0.63130296  0.12827435    -0.75600
Al511      Al  0.47915463  0.62817567  0.13071695     1.49000
C512        C  0.56371970  0.65897153  0.12543523     0.91700
O513        O  0.56213650  0.73479274  0.07666783    -0.81900
O514        O  0.45642230  0.70833966  0.09961970    -0.75400
Al515      Al  0.54134984  0.71885019  0.11989921     1.90100
O516        O  0.50728251  0.71702180  0.05267298    -0.74500
O517        O  0.41825698  0.63079507  0.08849793    -0.74300
O518        O  0.47936683  0.63976251  0.05230528    -0.80000
O519        O  0.42590720  0.61804893  0.13740065    -0.78200
O520        O  0.49687575  0.67390408  0.10933460    -1.14300
O521        O  0.48933775  0.64971509  0.17239659    -0.73500
C522        C  0.51107699  0.68371103  0.18353901     0.97200
C523        C  0.54403995  0.73584931  0.05240853     0.93600
Al524      Al  0.46844330  0.67425142  0.07656813     1.55600
O525        O  0.57287371  0.69466390  0.12189796    -0.78200
C526        C  0.40332639  0.61576539  0.11524216     0.97700
C527        C  0.47938462  0.73930157  0.11532900     0.92600
O528        O  0.51512823  0.74925396  0.12020090    -0.83500
C529        C  0.40175897  0.76345657  0.13558441    -0.03000
C530        C  0.42240325  0.80475323  0.13062520     0.06700
C531        C  0.46388842  0.82574311  0.13348524    -0.03100
C532        C  0.48456458  0.80531063  0.12948566    -0.03100
C533        C  0.46290543  0.76339208  0.12794123     0.06800
C534        C  0.42272417  0.74354035  0.13711557    -0.03300
Br535      Br  0.39868971  0.69154301  0.15652444    -0.01800
Br536      Br  0.34542975  0.73437593  0.14199164    -0.01900
Br537      Br  0.54133712  0.83501076  0.12607429    -0.01900
Br538      Br  0.49127912  0.88066769  0.14580117    -0.01900
C539        C  0.55357614  0.74110421  0.99283638    -0.03000
C540        C  0.56411107  0.75957020  0.02308425     0.06700
C541        C  0.58530008  0.80132999  0.02412297    -0.03100
C542        C  0.58873192  0.82351348  0.99611904    -0.03100
C543        C  0.57324668  0.80414652  0.96690007     0.06800
C544        C  0.56130241  0.76395305  0.96480498    -0.03300
Br545      Br  0.55273917  0.73958141  0.92359379    -0.01800
Br546      Br  0.52308437  0.68442487  0.98917580    -0.01900
Br547      Br  0.61579783  0.88011611  0.99709530    -0.01900
Br548      Br  0.60536128  0.82765635  0.06428482    -0.01900
C549        C  0.49873553  0.90920093  0.00047035    -0.03000
C550        C  0.48521297  0.91180503  0.97000202     0.06700
C551        C  0.45535287  0.92150040  0.96847651    -0.03100
C552        C  0.43474810  0.92050509  0.99692261    -0.03100
C553        C  0.44090408  0.90580324  0.02589862     0.06800
C554        C  0.47485749  0.90254653  0.02783455    -0.03300
Br555      Br  0.48607211  0.88285177  0.06571800    -0.01800
Br556      Br  0.54840260  0.91127865  0.00380608    -0.01900
Br557      Br  0.40046814  0.94161465  0.99706804    -0.01900
Br558      Br  0.44022124  0.93270208  0.92776039    -0.01900
C559        C  0.17849894  0.76225058  0.01037145    -0.03000
C560        C  0.19185386  0.77164644  0.97818713     0.06700
C561        C  0.22711363  0.80788408  0.97193254    -0.03100
C562        C  0.25288774  0.82875287  0.99731935    -0.03100
C563        C  0.24242248  0.81513505  0.02933232     0.06800
C564        C  0.20333006  0.78422399  0.03592190    -0.03300
Br565      Br  0.18517785  0.76892612  0.07979261    -0.01800
Br566      Br  0.12604985  0.71959167  0.01927607    -0.01900
Br567      Br  0.30285958  0.87531163  0.98823746    -0.01900
Br568      Br  0.24099804  0.82765852  0.92844323    -0.01900
C569        C  0.35405558  0.79385293  0.92641842    -0.03000
C570        C  0.37393087  0.80236571  0.89638494     0.06700
C571        C  0.35186929  0.79602985  0.86810621    -0.03100
C572        C  0.31013571  0.77388451  0.86958600    -0.03100
C573        C  0.29046564  0.76030377  0.89951685     0.06800
C574        C  0.31265961  0.77211578  0.92789223    -0.03300
Br575      Br  0.28675210  0.75935084  0.96928541    -0.01800
Br576      Br  0.38306603  0.81592293  0.96559010    -0.01900
Br577      Br  0.28024166  0.75976596  0.83049629    -0.01900
Br578      Br  0.37759301  0.81944734  0.82761636    -0.01900
C579        C  0.07787864  0.53257299  0.97119347    -0.03000
C580        C  0.08369146  0.57098794  0.97433544     0.06700
C581        C  0.07349722  0.58071320  0.00411872    -0.03100
C582        C  0.06936104  0.55827391  0.03207492    -0.03100
C583        C  0.07141311  0.52367809  0.02962713     0.06800
C584        C  0.06898116  0.50828581  0.99872808    -0.03300
Br585      Br  0.05041146  0.45325036  0.99434070    -0.01800
Br586      Br  0.08558752  0.51365892  0.93062579    -0.01900
Br587      Br  0.06507455  0.57703709  0.07371326    -0.01900
Br588      Br  0.06284138  0.62288968  0.00606404    -0.01900
C589        C  0.22671170  0.69456194  0.08104562    -0.03000
C590        C  0.24363076  0.71362795  0.11013853     0.06700
C591        C  0.23164631  0.69109175  0.13901915    -0.03100
C592        C  0.20593470  0.64935643  0.13805387    -0.03100
C593        C  0.19070404  0.63061578  0.10841910     0.06800
C594        C  0.19938614  0.65380939  0.08035431    -0.03300
Br595      Br  0.17335675  0.62973142  0.04057609    -0.01800
Br596      Br  0.24116958  0.72361190  0.04132039    -0.01900
Br597      Br  0.19353382  0.61762461  0.17671162    -0.01900
Br598      Br  0.25161881  0.71685959  0.17945267    -0.01900
C599        C  0.29729187  0.59037126  0.10242748    -0.03000
C600        C  0.27492381  0.55146791  0.11551851     0.06700
C601        C  0.29518602  0.53632988  0.13293050    -0.03100
C602        C  0.33689539  0.55909317  0.13597815    -0.03100
C603        C  0.35927749  0.59553585  0.11905927     0.06800
C604        C  0.33878101  0.61112368  0.10254743    -0.03300
Br605      Br  0.36631695  0.66133067  0.07920527    -0.01800
Br606      Br  0.27238766  0.61775988  0.08507826    -0.01900
Br607      Br  0.36292536  0.53878065  0.16212499    -0.01900
Br608      Br  0.26709057  0.48314492  0.15033607    -0.01900
C609        C  0.17483408  0.44104140  0.99074630    -0.03000
C610        C  0.18402830  0.43928726  0.02355921     0.06700
C611        C  0.21079030  0.42581199  0.02979393    -0.03100
C612        C  0.23151059  0.42042239  0.00408648    -0.03100
C613        C  0.22691569  0.42900145  0.97223489     0.06800
C614        C  0.19517184  0.43444378  0.96562293    -0.03300
Br615      Br  0.17991298  0.43291703  0.92156806    -0.01800
Br616      Br  0.13630347  0.45463413  0.97843936    -0.01900
Br617      Br  0.26272417  0.39654930  0.01119469    -0.01900
Br618      Br  0.22246638  0.41717170  0.07295042    -0.01900
C619        C  0.46475414  0.55785095  0.98286384    -0.03000
C620        C  0.42389722  0.52888261  0.98376457     0.06700
C621        C  0.40547439  0.51597856  0.01431240    -0.03100
C622        C  0.42207484  0.53948136  0.04134220    -0.03100
C623        C  0.45980598  0.57366549  0.03882442     0.06800
C624        C  0.48303490  0.57906087  0.01111237    -0.03300
Br625      Br  0.53968405  0.61138402  0.01373070    -0.01800
Br626      Br  0.49569876  0.56894009  0.94395855    -0.01900
Br627      Br  0.39051454  0.52635004  0.08033163    -0.01900
Br628      Br  0.35708336  0.46652897  0.01963627    -0.01900
C629        C  0.41761421  0.69105505  0.88390955    -0.03000
C630        C  0.45861943  0.71245363  0.87732740     0.06700
C631        C  0.47702040  0.69114832  0.86798260    -0.03100
C632        C  0.45745408  0.64972440  0.87375466    -0.03100
C633        C  0.41778278  0.62896069  0.88518673     0.06800
C634        C  0.39743357  0.64979275  0.88786915    -0.03300
Br635      Br  0.34146497  0.62297525  0.89589644    -0.01800
Br636      Br  0.38787810  0.71785251  0.88522346    -0.01900
Br637      Br  0.48652496  0.62277597  0.86874482    -0.01900
Br638      Br  0.52676532  0.71731873  0.84466396    -0.01900
C639        C  0.19568141  0.55284122  0.87565493    -0.03000
C640        C  0.19998039  0.57798724  0.90180961     0.06700
C641        C  0.21971303  0.57564986  0.92955980    -0.03100
C642        C  0.23978216  0.55457554  0.92874631    -0.03100
C643        C  0.24188284  0.53615400  0.90020574     0.06800
C644        C  0.21658687  0.53220312  0.87492077    -0.03300
Br645      Br  0.20768901  0.49609413  0.84048082    -0.01800
Br646      Br  0.15831950  0.54247176  0.84209429    -0.01900
Br647      Br  0.26026944  0.54724713  0.96879900    -0.01900
Br648      Br  0.21824999  0.59820132  0.97075207    -0.01900
C649        C  0.96578155  0.34748376  0.14654591    -0.03000
C650        C  0.94608705  0.34300703  0.11739599     0.06700
C651        C  0.96781630  0.35359904  0.08828448    -0.03100
C652        C  0.00941346  0.37281074  0.08881156    -0.03100
C653        C  0.02922813  0.38393495  0.11821259     0.06800
C654        C  0.00739566  0.36856916  0.14699569    -0.03300
Br655      Br  0.03490445  0.37870437  0.18697829    -0.01800
Br656      Br  0.93563314  0.32773897  0.18606623    -0.01900
Br657      Br  0.03987001  0.38635631  0.04969393    -0.01900
Br658      Br  0.94117002  0.34674104  0.04826438    -0.01900
C659        C  0.36998808  0.02335288  0.15479137    -0.03000
C660        C  0.37994366  0.04750611  0.12700310     0.06700
C661        C  0.36433082  0.02942410  0.09739966    -0.03100
C662        C  0.34806898  0.98818343  0.09420178    -0.03100
C663        C  0.34514429  0.96499630  0.12114321     0.06800
C664        C  0.35171976  0.98192699  0.15193326    -0.03300
Br665      Br  0.33815240  0.94913254  0.19000447    -0.01800
Br666      Br  0.38495616  0.04780881  0.19639891    -0.01900
Br667      Br  0.33030918  0.96317714  0.05324179    -0.01900
Br668      Br  0.36699518  0.06143888  0.06141610    -0.01900
C669        C  0.68128825  0.26522983  0.15451466    -0.03000
C670        C  0.70488298  0.24845972  0.14922508     0.06700
C671        C  0.68675380  0.20679280  0.14934632    -0.03100
C672        C  0.64557374  0.18330690  0.14436562    -0.03100
C673        C  0.62299853  0.20193890  0.14194678     0.06800
C674        C  0.64004771  0.24132927  0.15251851    -0.03300
Br675      Br  0.60666028  0.26124934  0.16624107    -0.01800
Br676      Br  0.70567037  0.32083933  0.16369039    -0.01900
Br677      Br  0.62199840  0.12711015  0.13858804    -0.01900
Br678      Br  0.71895130  0.18275146  0.15061065    -0.01900
C679        C  0.97853400  0.62343156  0.85210153    -0.03000
C680        C  0.95855660  0.61779666  0.88167888     0.06700
C681        C  0.98027595  0.63653511  0.90935633    -0.03100
C682        C  0.02199096  0.65790974  0.90787803    -0.03100
C683        C  0.04178492  0.65894888  0.87916267     0.06800
C684        C  0.02004287  0.64340005  0.85092284    -0.03300
Br685      Br  0.04702571  0.64603279  0.81122526    -0.01800
Br686      Br  0.94884710  0.59984285  0.81380598    -0.01900
Br687      Br  0.05220490  0.68251366  0.94569059    -0.01900
Br688      Br  0.95293440  0.62932934  0.94977334    -0.01900
C689        C  0.90144061  0.48887742  0.00643332    -0.03000
C690        C  0.89316858  0.47197349  0.97569950     0.06700
C691        C  0.88919600  0.43431585  0.97179227    -0.03100
C692        C  0.88447850  0.41083666  0.99907841    -0.03100
C693        C  0.88528167  0.42540326  0.03004583     0.06800
C694        C  0.89622551  0.46539093  0.03370243    -0.03300
Br695      Br  0.89753457  0.48649234  0.07572894    -0.01800
Br696      Br  0.91944130  0.54417262  0.01097568    -0.01900
Br697      Br  0.87371836  0.35757765  0.99410070    -0.01900
Br698      Br  0.88784744  0.41320677  0.92973255    -0.01900
C699        C  0.61132138  0.98543355  0.84539712    -0.03000
C700        C  0.61324839  0.96327231  0.87140332     0.06700
C701        C  0.63512511  0.98349290  0.89864483    -0.03100
C702        C  0.65024636  0.02469646  0.90152642    -0.03100
C703        C  0.64227751  0.04514035  0.87764559     0.06800
C704        C  0.62437510  0.02574530  0.84894272    -0.03300
Br705      Br  0.61361368  0.05294368  0.81546796    -0.01800
Br706      Br  0.58575351  0.95934191  0.80611076    -0.01900
Br707      Br  0.67877960  0.05244210  0.93915704    -0.01900
Br708      Br  0.64024819  0.95409263  0.93338088    -0.01900
C709        C  0.55962472  0.07872686  0.99962298    -0.03000
C710        C  0.54780686  0.09218082  0.97301346     0.06700
C711        C  0.51305320  0.09369622  0.97606249    -0.03100
C712        C  0.49641063  0.09102580  0.00691895    -0.03100
C713        C  0.51603892  0.08949400  0.03464629     0.06800
C714        C  0.54564230  0.07989900  0.03074028    -0.03300
Br715      Br  0.56954046  0.07263021  0.06805930    -0.01800
Br716      Br  0.59307175  0.05701289  0.99248561    -0.01900
Br717      Br  0.44762371  0.09039624  0.01118023    -0.01900
Br718      Br  0.48993120  0.10152336  0.93831605    -0.01900
C719        C  0.71069168  0.18253719  0.01580703    -0.03000
C720        C  0.73009588  0.18501054  0.98666520     0.06700
C721        C  0.77186821  0.20536554  0.98608889    -0.03100
C722        C  0.79331665  0.22851970  0.01281730    -0.03100
C723        C  0.77295707  0.23138967  0.03988144     0.06800
C724        C  0.73150193  0.20711296  0.04127668    -0.03300
Br725      Br  0.70100558  0.21258343  0.07441515    -0.01800
Br726      Br  0.65421841  0.14933056  0.01957629    -0.01900
Br727      Br  0.85008278  0.25821694  0.01155517    -0.01900
Br728      Br  0.79940435  0.20327151  0.94837995    -0.01900
C729        C  0.73138567  0.31841853  0.92169619    -0.03000
C730        C  0.74158187  0.29606318  0.90164770     0.06700
C731        C  0.77345713  0.31657769  0.87945903    -0.03100
C732        C  0.79325215  0.35864513  0.87678752    -0.03100
C733        C  0.77960524  0.38001609  0.89486350     0.06800
C734        C  0.74618232  0.35845444  0.91520936    -0.03300
Br735      Br  0.71633947  0.38136017  0.93173519    -0.01800
Br736      Br  0.70151021  0.29657929  0.96133412    -0.01900
Br737      Br  0.83850304  0.38602212  0.84824517    -0.01900
Br738      Br  0.79152461  0.28787914  0.85395719    -0.01900
C739        C  0.36290677  0.34649908  0.86250257    -0.03000
C740        C  0.37914700  0.34185868  0.89115357     0.06700
C741        C  0.37218207  0.35567171  0.92018236    -0.03100
C742        C  0.35399681  0.37857811  0.91978309    -0.03100
C743        C  0.34183348  0.38698137  0.89059846     0.06800
C744        C  0.34271638  0.36757055  0.86256327    -0.03300
Br745      Br  0.31947903  0.37283976  0.82376614    -0.01800
Br746      Br  0.37392513  0.32963816  0.82228273    -0.01900
Br747      Br  0.34833095  0.40127406  0.95879591    -0.01900
Br748      Br  0.39313480  0.34863996  0.95964937    -0.01900
C749        C  0.41971717  0.22688665  0.99873239    -0.03000
C750        C  0.43955764  0.22961419  0.96963209     0.06700
C751        C  0.46013875  0.20943294  0.96743789    -0.03100
C752        C  0.47085819  0.19701925  0.99507922    -0.03100
C753        C  0.45240358  0.19516847  0.02526090     0.06800
C754        C  0.42368488  0.20703689  0.02582132    -0.03300
Br755      Br  0.38938874  0.19647338  0.06269173    -0.01800
Br756      Br  0.38567716  0.24858265  0.00049348    -0.01900
Br757      Br  0.51575294  0.18966917  0.98946825    -0.01900
Br758      Br  0.47404567  0.19866538  0.92629633    -0.01900
C759        C  0.64189458  0.44391583  0.92526415    -0.03000
C760        C  0.62366448  0.43132927  0.89514019     0.06700
C761        C  0.64714467  0.44370100  0.86684811    -0.03100
C762        C  0.68885420  0.46531860  0.86894885    -0.03100
C763        C  0.70685638  0.47668704  0.89924475     0.06800
C764        C  0.68311949  0.46721853  0.92719292    -0.03300
Br765      Br  0.70707236  0.48513256  0.96867646    -0.01800
Br766      Br  0.61102954  0.42842387  0.96463328    -0.01900
Br767      Br  0.72111628  0.47543614  0.83089643    -0.01900
Br768      Br  0.62220089  0.42912517  0.82558257    -0.01900
C769        C  0.57599378  0.27540691  0.86563358    -0.03000
C770        C  0.53454120  0.25590596  0.86338169     0.06700
C771        C  0.51386542  0.21520812  0.85576389    -0.03100
C772        C  0.53243350  0.19273601  0.86001939    -0.03100
C773        C  0.57203641  0.21162981  0.87014468     0.06800
C774        C  0.59476039  0.25332486  0.86846793    -0.03300
Br775      Br  0.65148236  0.28017139  0.86650533    -0.01800
Br776      Br  0.60717650  0.33238223  0.86337920    -0.01900
Br777      Br  0.50353229  0.13648146  0.85296542    -0.01900
Br778      Br  0.46004828  0.18993249  0.84160248    -0.01900
C779        C  0.61477361  0.60615565  0.15380384    -0.03000
C780        C  0.63630967  0.60786733  0.12594605     0.06700
C781        C  0.63946087  0.63237279  0.09986477    -0.03100
C782        C  0.61925104  0.65342880  0.10100937    -0.03100
C783        C  0.59426614  0.64806584  0.12752067     0.06800
C784        C  0.59336090  0.62568511  0.15442573    -0.03300
Br785      Br  0.56063134  0.61963181  0.19159735    -0.01800
Br786      Br  0.61187995  0.57442077  0.19044230    -0.01900
Br787      Br  0.62303522  0.68667725  0.06527369    -0.01900
Br788      Br  0.66755542  0.63322819  0.06136378    -0.01900
C789        C  0.82292606  0.59408114  0.00894920    -0.03000
C790        C  0.80946723  0.58758978  0.97714145     0.06700
C791        C  0.77546659  0.58930420  0.97010261    -0.03100
C792        C  0.74977738  0.58637660  0.99518456    -0.03100
C793        C  0.76039799  0.58678395  0.02740189     0.06800
C794        C  0.79921419  0.59567006  0.03393405    -0.03300
Br795      Br  0.81814730  0.60541314  0.07735819    -0.01800
Br796      Br  0.87264200  0.59862963  0.01826549    -0.01900
Br797      Br  0.69812715  0.57685307  0.98541470    -0.01900
Br798      Br  0.76184444  0.59134085  0.92615166    -0.01900
C799        C  0.56353206  0.48174215  0.00657673    -0.03000
C800        C  0.56095225  0.46058440  0.03486454     0.06700
C801        C  0.53069556  0.42038636  0.03770992    -0.03100
C802        C  0.50853822  0.40026253  0.01067679    -0.03100
C803        C  0.51672324  0.41977337  0.98055211     0.06800
C804        C  0.54161805  0.46138415  0.97928403    -0.03300
Br805      Br  0.54929649  0.48989992  0.93952892    -0.01800
Br806      Br  0.59706417  0.53848860  0.00559661    -0.01900
Br807      Br  0.46941952  0.34463954  0.01419468    -0.01900
Br808      Br  0.52185037  0.39094301  0.07722465    -0.01900
C809        C  0.61190331  0.35813899  0.10984222    -0.03000
C810        C  0.59458809  0.37826195  0.12371950     0.06700
C811        C  0.55832663  0.35608522  0.14083713    -0.03100
C812        C  0.53747654  0.31405321  0.14033153    -0.03100
C813        C  0.55201525  0.29388029  0.12170285     0.06800
C814        C  0.59011270  0.31683971  0.10669685    -0.03300
Br815      Br  0.61445761  0.29433586  0.08024558    -0.01800
Br816      Br  0.66719420  0.38689511  0.09717439    -0.01900
Br817      Br  0.48766917  0.28530484  0.16337722    -0.01900
Br818      Br  0.53612856  0.38273864  0.16421908    -0.01900
C819        C  0.78539811  0.44434949  0.08378008    -0.03000
C820        C  0.79207632  0.43244038  0.11399542     0.06700
C821        C  0.78719876  0.44955687  0.14213468    -0.03100
C822        C  0.77066914  0.47415050  0.14020075    -0.03100
C823        C  0.76234542  0.48422714  0.10991171     0.06800
C824        C  0.77301467  0.47191474  0.08187914    -0.03300
Br825      Br  0.76954018  0.49224618  0.04044137    -0.01800
Br826      Br  0.79095261  0.42206104  0.04431470    -0.01900
Br827      Br  0.75667535  0.49144815  0.17872564    -0.01900
Br828      Br  0.80110885  0.43763401  0.18313982    -0.01900
C829        C  0.69530903  0.15395982  0.74238445    -0.03000
C830        C  0.67394324  0.16711782  0.72384230     0.06700
C831        C  0.65450504  0.18396254  0.74026109    -0.03100
C832        C  0.65045370  0.18134891  0.77402190    -0.03100
C833        C  0.66954141  0.16587265  0.79214857     0.06800
C834        C  0.69302824  0.15348046  0.77631069    -0.03300
Br835      Br  0.72056926  0.13387055  0.80143030    -0.01800
Br836      Br  0.72906535  0.13741696  0.72265169    -0.01900
Br837      Br  0.61902411  0.19957005  0.79533758    -0.01900
Br838      Br  0.63961574  0.21688853  0.71739288    -0.01900
C839        C  0.87288896  0.38132199  0.23621939    -0.03000
C840        C  0.85202226  0.34469161  0.22011583     0.06700
C841        C  0.83490061  0.30914111  0.23867318    -0.03100
C842        C  0.84029437  0.31024078  0.27219243    -0.03100
C843        C  0.85834195  0.34679971  0.28865097     0.06800
C844        C  0.87391283  0.38240466  0.27013684    -0.03300
Br845      Br  0.89511990  0.43362321  0.29007576    -0.01800
Br846      Br  0.90285605  0.43080048  0.21237758    -0.01900
Br847      Br  0.82490113  0.26082973  0.29441766    -0.01900
Br848      Br  0.80150516  0.25796634  0.21934973    -0.01900
C849        C  0.83086595  0.28351278  0.51201431    -0.03000
C850        C  0.82139363  0.26626464  0.48137520     0.06700
C851        C  0.79543457  0.22498635  0.47945065    -0.03100
C852        C  0.77273718  0.20324368  0.50675011    -0.03100
C853        C  0.77724004  0.22223621  0.53646462     0.06800
C854        C  0.80944111  0.26140679  0.53954211    -0.03300
Br855      Br  0.82285960  0.28612457  0.58081942    -0.01800
Br856      Br  0.87250649  0.33796749  0.51590499    -0.01900
Br857      Br  0.73545487  0.14760251  0.50336329    -0.01900
Br858      Br  0.78859085  0.19903933  0.43886492    -0.01900
C859        C  0.84974567  0.56550797  0.74180292    -0.03000
C860        C  0.84064013  0.53144333  0.72381655     0.06700
C861        C  0.82828569  0.49526600  0.74033851    -0.03100
C862        C  0.82694869  0.49361152  0.77417361    -0.03100
C863        C  0.83872280  0.52813799  0.79201461     0.06800
C864        C  0.84919114  0.56395484  0.77572792    -0.03300
Br865      Br  0.86459450  0.61165500  0.79967429    -0.01800
Br866      Br  0.86445253  0.61503171  0.72033817    -0.01900
Br867      Br  0.80608464  0.44324117  0.79619880    -0.01900
Br868      Br  0.81055464  0.44685517  0.71717859    -0.01900
C869        C  0.84820964  0.47072688  0.50108271    -0.03000
C870        C  0.86803335  0.47390024  0.53020288     0.06700
C871        C  0.90032700  0.46710673  0.52909848    -0.03100
C872        C  0.90950650  0.45452470  0.50001352    -0.03100
C873        C  0.89011487  0.45323659  0.47145109     0.06800
C874        C  0.86389994  0.46710260  0.47209883    -0.03300
Br875      Br  0.84885779  0.48091281  0.43313502    -0.01800
Br876      Br  0.79558706  0.46349358  0.49877827    -0.01900
Br877      Br  0.95046681  0.44177322  0.49824009    -0.01900
Br878      Br  0.93080863  0.47225604  0.56667567    -0.01900
C879        C  0.73725819  0.35830277  0.63000097    -0.03000
C880        C  0.77822479  0.38422975  0.63381767     0.06700
C881        C  0.80178815  0.36828579  0.64363662    -0.03100
C882        C  0.78510395  0.32670019  0.64562629    -0.03100
C883        C  0.74537654  0.30138778  0.63730004     0.06800
C884        C  0.72097995  0.31755761  0.63440441    -0.03300
Br885      Br  0.66533834  0.28481676  0.64248305    -0.01800
Br886      Br  0.70245066  0.37677956  0.61694872    -0.01900
Br887      Br  0.81548651  0.30466525  0.66182807    -0.01900
Br888      Br  0.85767507  0.40226659  0.65076360    -0.01900
C889        C  0.47064792  0.17224152  0.27497223    -0.03000
C890        C  0.48817564  0.15457698  0.29309123     0.06700
C891        C  0.50253157  0.13309176  0.27581632    -0.03100
C892        C  0.50378652  0.13355564  0.24173986    -0.03100
C893        C  0.48751668  0.15246148  0.22352380     0.06800
C894        C  0.47041325  0.17136903  0.24085859    -0.03300
Br895      Br  0.44636685  0.19714809  0.21884540    -0.01800
Br896      Br  0.44228770  0.19445707  0.29606719    -0.01900
Br897      Br  0.52791184  0.10657480  0.22120208    -0.01900
Br898      Br  0.51773335  0.09920550  0.29762550    -0.01900
C899        C  0.51599962  0.10557215  0.51730828    -0.03000
C900        C  0.52964238  0.10599475  0.48571594     0.06700
C901        C  0.56004954  0.09705347  0.48142400    -0.03100
C902        C  0.58312796  0.09917058  0.50789803    -0.03100
C903        C  0.57403334  0.10694029  0.53875731     0.06800
C904        C  0.53796908  0.10571542  0.54379221    -0.03300
Br905      Br  0.52070808  0.10891946  0.58662658    -0.01800
Br906      Br  0.46766167  0.10545661  0.52460319    -0.01900
Br907      Br  0.62877012  0.09408191  0.50184980    -0.01900
Br908      Br  0.57316273  0.08527461  0.43960509    -0.01900
C909        C  0.65518673  0.21430422  0.42487662    -0.03000
C910        C  0.63241563  0.20761705  0.39687221     0.06700
C911        C  0.65239590  0.22227927  0.36691096    -0.03100
C912        C  0.69430106  0.24441708  0.36543292    -0.03100
C913        C  0.71621368  0.25403501  0.39390084     0.06800
C914        C  0.69643801  0.23841225  0.42344332    -0.03300
Br915      Br  0.72546463  0.25154433  0.46295602    -0.01800
Br916      Br  0.63114684  0.19143934  0.46628554    -0.01900
Br917      Br  0.72189785  0.26307628  0.32476285    -0.01900
Br918      Br  0.62314189  0.21600562  0.32830666    -0.01900
C919        C  0.45435607  0.30787950  0.73532033    -0.03000
C920        C  0.47483160  0.34401140  0.71777094     0.06700
C921        C  0.49191672  0.37987281  0.73545029    -0.03100
C922        C  0.48986557  0.37909689  0.76951677    -0.03100
C923        C  0.47520984  0.34306442  0.78690928     0.06800
C924        C  0.45687582  0.30721179  0.76919555    -0.03300
Br925      Br  0.43561717  0.25604583  0.79008135    -0.01800
Br926      Br  0.41812322  0.25923241  0.71374286    -0.01900
Br927      Br  0.50299625  0.42729044  0.79186622    -0.01900
Br928      Br  0.51888218  0.43110898  0.71411171    -0.01900
C929        C  0.43138333  0.21799134  0.53231799    -0.03000
C930        C  0.44790402  0.25938921  0.52818732     0.06700
C931        C  0.45328119  0.27487558  0.49666896    -0.03100
C932        C  0.44706279  0.25046541  0.46998168    -0.03100
C933        C  0.43749183  0.21095051  0.47455095     0.06800
C934        C  0.42556389  0.19391249  0.50533844    -0.03300
Br935      Br  0.40077298  0.13739869  0.50950736    -0.01800
Br936      Br  0.42106885  0.19460289  0.57468067    -0.01900
Br937      Br  0.45220162  0.27112283  0.42702035    -0.01900
Br938      Br  0.47118181  0.32999796  0.48997469    -0.01900
C939        C  0.64449920  0.42717450  0.65818162    -0.03000
C940        C  0.62323395  0.44309295  0.64440534     0.06700
C941        C  0.64221890  0.48452830  0.63983787    -0.03100
C942        C  0.68402506  0.50744226  0.63908694    -0.03100
C943        C  0.70597977  0.48906765  0.64592506     0.06800
C944        C  0.68584666  0.45101266  0.66051638    -0.03300
Br945      Br  0.71512787  0.43282649  0.68457723    -0.01800
Br946      Br  0.61661802  0.37323738  0.67397372    -0.01900
Br947      Br  0.71027537  0.56255306  0.62724661    -0.01900
Br948      Br  0.61106499  0.50897466  0.63277917    -0.01900
C949        C  0.53801643  0.23514470  0.64182081    -0.03000
C950        C  0.54030610  0.25755606  0.61454438     0.06700
C951        C  0.55636855  0.25262172  0.58567681    -0.03100
C952        C  0.57399938  0.22947676  0.58497608    -0.03100
C953        C  0.57826336  0.21289983  0.61367907     0.06800
C954        C  0.55695062  0.21270252  0.64147593    -0.03300
Br955      Br  0.55182929  0.18110110  0.67859764    -0.01800
Br956      Br  0.50966576  0.23601924  0.67956393    -0.01900
Br957      Br  0.58885549  0.21759458  0.54372807    -0.01900
Br958      Br  0.55330065  0.27598129  0.54610638    -0.01900
C959        C  0.65958724  0.49058934  0.23300198    -0.03000
C960        C  0.67532206  0.52625560  0.21538237     0.06700
C961        C  0.69562493  0.56269465  0.23137496    -0.03100
C962        C  0.69860005  0.56351168  0.26512741    -0.03100
C963        C  0.67968339  0.52751973  0.28335041     0.06800
C964        C  0.66245928  0.49126095  0.26670842    -0.03300
Br965      Br  0.64855179  0.44289576  0.28908879    -0.01800
Br966      Br  0.63608891  0.44078815  0.21066551    -0.01900
Br967      Br  0.73010522  0.61457641  0.28513501    -0.01900
Br968      Br  0.71813548  0.61175713  0.20695010    -0.01900
C969        C  0.77503784  0.60357299  0.49678911    -0.03000
C970        C  0.78086858  0.58481304  0.47027095     0.06700
C971        C  0.80933589  0.57350576  0.47314899    -0.03100
C972        C  0.82585672  0.57425633  0.50329356    -0.03100
C973        C  0.81153550  0.58299356  0.53132372     0.06800
C974        C  0.78879933  0.60106572  0.52757767    -0.03300
Br975      Br  0.77725270  0.62265073  0.56446934    -0.01800
Br976      Br  0.75302320  0.63656233  0.48999375    -0.01900
Br977      Br  0.86954422  0.56572679  0.50621489    -0.01900
Br978      Br  0.82428637  0.55556483  0.43582325    -0.01900
C979        C  0.61466426  0.50281280  0.50553016    -0.03000
C980        C  0.59487435  0.49401404  0.47616571     0.06700
C981        C  0.55327682  0.46901426  0.47650806    -0.03100
C982        C  0.53322480  0.44999858  0.50556599    -0.03100
C983        C  0.55504574  0.45167224  0.53277504     0.06800
C984        C  0.59622798  0.47819930  0.53223266    -0.03300
Br985      Br  0.62993864  0.47418528  0.56281616    -0.01800
Br986      Br  0.66905259  0.54483578  0.50784161    -0.01900
Br987      Br  0.47647048  0.41983171  0.50779450    -0.01900
Br988      Br  0.52435402  0.45665604  0.43712867    -0.01900
C989        C  0.58417557  0.36465265  0.42504858    -0.03000
C990        C  0.58818400  0.38433494  0.39568795     0.06700
C991        C  0.56733072  0.36198163  0.36878576    -0.03100
C992        C  0.54834927  0.32021134  0.36986701    -0.03100
C993        C  0.54958821  0.30086661  0.39809460     0.06800
C994        C  0.56673408  0.32345692  0.42596924    -0.03300
Br995      Br  0.56663688  0.29917392  0.46626691    -0.01800
Br996      Br  0.59834626  0.39369742  0.46497694    -0.01900
Br997      Br  0.52298205  0.29005628  0.33209872    -0.01900
Br998      Br  0.56252047  0.38772770  0.33128473    -0.01900
C999        C  0.80649179  0.49850462  0.35812829    -0.03000
C1000       C  0.76538565  0.47948639  0.36417167     0.06700
C1001       C  0.74291491  0.43775609  0.36222506    -0.03100
C1002       C  0.76149156  0.41535852  0.36368817    -0.03100
C1003       C  0.80294383  0.43459102  0.36488888     0.06800
C1004       C  0.82529598  0.47583692  0.35787484    -0.03300
Br1005     Br  0.88163840  0.50180595  0.35067838    -0.01800
Br1006     Br  0.83678452  0.55489575  0.35055920    -0.01900
Br1007     Br  0.73011634  0.35830988  0.36331199    -0.01900
Br1008     Br  0.68681523  0.41140671  0.35557893    -0.01900
C1009       C  0.55519757  0.70900652  0.26701680    -0.03000
C1010       C  0.52095978  0.68890843  0.28669400     0.06700
C1011       C  0.48345139  0.67108037  0.27257545    -0.03100
C1012       C  0.48010079  0.67117107  0.23887760    -0.03100
C1013       C  0.51436101  0.68865265  0.21896321     0.06800
C1014       C  0.55201319  0.70804372  0.23328571    -0.03300
Br1015     Br  0.59964112  0.73038725  0.20705513    -0.01800
Br1016     Br  0.60675654  0.73737851  0.28618077    -0.01900
Br1017     Br  0.42842287  0.64835768  0.22025945    -0.01900
Br1018     Br  0.43670475  0.64838783  0.29962727    -0.01900
C1019       C  0.62376894  0.64791594  0.34481598    -0.03000
C1020       C  0.62496182  0.67018222  0.37165335     0.06700
C1021       C  0.64795460  0.67240913  0.39815169    -0.03100
C1022       C  0.66612027  0.64924886  0.39920935    -0.03100
C1023       C  0.66364696  0.62562133  0.37284518     0.06800
C1024       C  0.64323938  0.62625187  0.34516525    -0.03300
Br1025     Br  0.63676602  0.59325604  0.30875385    -0.01800
Br1026     Br  0.59015631  0.64212669  0.30919782    -0.01900
Br1027     Br  0.68681673  0.64352094  0.43909002    -0.01900
Br1028     Br  0.65046682  0.70364420  0.43450774    -0.01900
C1029       C  0.37604322  0.88395291  0.26542365    -0.03000
C1030       C  0.34078161  0.86203761  0.28385705     0.06700
C1031       C  0.30440955  0.84122149  0.26737359    -0.03100
C1032       C  0.30340486  0.84089891  0.23338776    -0.03100
C1033       C  0.33894909  0.86145310  0.21476370     0.06800
C1034       C  0.37516822  0.88428896  0.23140903    -0.03300
Br1035     Br  0.42488545  0.91847696  0.20891109    -0.01800
Br1036     Br  0.42604445  0.91626093  0.28653208    -0.01900
Br1037     Br  0.25201852  0.81449895  0.21327784    -0.01900
Br1038     Br  0.25453100  0.81207199  0.29063508    -0.01900
C1039       C  0.35462932  0.98945070  0.35905261    -0.03000
C1040       C  0.34907965  0.96633083  0.38685748     0.06700
C1041       C  0.36069984  0.98481321  0.41684131    -0.03100
C1042       C  0.38004787  0.02632247  0.41874191    -0.03100
C1043       C  0.39050030  0.04968104  0.39049060     0.06800
C1044       C  0.37624176  0.03120280  0.36070759    -0.03300
Br1045     Br  0.39172307  0.06285137  0.32174539    -0.01800
Br1046     Br  0.33565481  0.96383828  0.31834573    -0.01900
Br1047     Br  0.39629126  0.05174401  0.45975985    -0.01900
Br1048     Br  0.35607820  0.95380334  0.45445022    -0.01900
C1049       C  0.46001040  0.77350583  0.36439328    -0.03000
C1050       C  0.47173765  0.76582506  0.39417413     0.06700
C1051       C  0.46153403  0.77787987  0.42278980    -0.03100
C1052       C  0.43911461  0.79639210  0.42166672    -0.03100
C1053       C  0.42517378  0.80186690  0.39221104     0.06800
C1054       C  0.43697006  0.79178420  0.36337701    -0.03300
Br1055     Br  0.42068757  0.80197059  0.32273926    -0.01800
Br1056     Br  0.47292075  0.75618959  0.32536655    -0.01900
Br1057     Br  0.42948327  0.81639102  0.46069974    -0.01900
Br1058     Br  0.47766983  0.76880449  0.46411699    -0.01900
C1059       C  0.12829183  0.51019018  0.26974850    -0.03000
C1060       C  0.15036436  0.49565767  0.28566281     0.06700
C1061       C  0.16833169  0.47949068  0.26599875    -0.03100
C1062       C  0.16364831  0.47713450  0.23205720    -0.03100
C1063       C  0.14099011  0.49092429  0.21623743     0.06800
C1064       C  0.12310547  0.50716883  0.23584718    -0.03300
Br1065     Br  0.08889640  0.52364787  0.21714995    -0.01800
Br1066     Br  0.10596090  0.53674546  0.29336645    -0.01900
Br1067     Br  0.18972630  0.45501443  0.20782503    -0.01900
Br1068     Br  0.19965294  0.45950185  0.28470293    -0.01900
C1069       C  0.02882622  0.39054504  0.41901449    -0.03000
C1070       C  0.05042948  0.39965907  0.38981943     0.06700
C1071       C  0.02980828  0.38536521  0.36083665    -0.03100
C1072       C  0.98816473  0.36684730  0.36081881    -0.03100
C1073       C  0.96760140  0.36443799  0.38952195     0.06800
C1074       C  0.98758792  0.37361038  0.41881539    -0.03300
Br1075     Br  0.95837741  0.36494474  0.45842109    -0.01800
Br1076     Br  0.05643632  0.40558678  0.45907470    -0.01900
Br1077     Br  0.95980690  0.34835913  0.32118288    -0.01900
Br1078     Br  0.05881593  0.39684623  0.32071648    -0.01900
C1079       C  0.18904001  0.65831976  0.36435334    -0.03000
C1080       C  0.20998117  0.63849463  0.36959809     0.06700
C1081       C  0.25118387  0.65950356  0.36484506    -0.03100
C1082       C  0.27191621  0.70091250  0.36367770    -0.03100
C1083       C  0.25141168  0.72146554  0.36455580     0.06800
C1084       C  0.21018748  0.69997024  0.35978703    -0.03300
Br1085     Br  0.18325382  0.72692192  0.34639091    -0.01800
Br1086     Br  0.13213416  0.62934528  0.36562050    -0.01900
Br1087     Br  0.32847073  0.72924678  0.36034173    -0.01900
Br1088     Br  0.27924702  0.63195270  0.35809305    -0.01900
C1089       C  0.32262738  0.57014267  0.42196401    -0.03000
C1090       C  0.30329452  0.55525829  0.39225992     0.06700
C1091       C  0.32488604  0.55119709  0.36675319    -0.03100
C1092       C  0.36609313  0.56664651  0.36954147    -0.03100
C1093       C  0.38614964  0.58752299  0.39744219     0.06800
C1094       C  0.36306286  0.58389378  0.42491724    -0.03300
Br1095     Br  0.38464651  0.59162623  0.46790967    -0.01800
Br1096     Br  0.29478097  0.57035265  0.46040439    -0.01900
Br1097     Br  0.39281401  0.55264200  0.33782673    -0.01900
Br1098     Br  0.29839891  0.52489421  0.32795476    -0.01900
C1099       C  0.48200523  0.82572877  0.76367352    -0.03000
C1100       C  0.51725964  0.84591219  0.78114206     0.06700
C1101       C  0.55372842  0.86350685  0.76395708    -0.03100
C1102       C  0.55468350  0.86642661  0.73005756    -0.03100
C1103       C  0.51904188  0.85116794  0.71256374     0.06800
C1104       C  0.48271723  0.82885977  0.72973900    -0.03300
Br1105     Br  0.43392523  0.79875572  0.70706064    -0.01800
Br1106     Br  0.43375136  0.78819419  0.78593130    -0.01900
Br1107     Br  0.60595383  0.89191898  0.70862145    -0.01900
Br1108     Br  0.60315326  0.88272407  0.78622178    -0.01900
C1109       C  0.64485199  0.99580461  0.59870498    -0.03000
C1110       C  0.61897796  0.97333874  0.62431119     0.06700
C1111       C  0.61959884  0.99270621  0.65302404    -0.03100
C1112       C  0.64315697  0.03399023  0.65509248    -0.03100
C1113       C  0.66410340  0.05706537  0.62783136     0.06800
C1114       C  0.66661746  0.03779246  0.60014495    -0.03300
Br1115     Br  0.69520644  0.06862533  0.56282792    -0.01800
Br1116     Br  0.64659290  0.96957383  0.56021486    -0.01900
Br1117     Br  0.64205234  0.05921422  0.69453618    -0.01900
Br1118     Br  0.58455401  0.96395237  0.68885513    -0.01900
C1119       C  0.57636039  0.84027927  0.48729032    -0.03000
C1120       C  0.58218395  0.83100762  0.51893775     0.06700
C1121       C  0.60182250  0.80938304  0.52229042    -0.03100
C1122       C  0.60400241  0.78792689  0.49586364    -0.03100
C1123       C  0.58930851  0.79032374  0.46590755     0.06800
C1124       C  0.58155431  0.82107839  0.46082512    -0.03300
Br1125     Br  0.57751044  0.83627229  0.41761524    -0.01800
Br1126     Br  0.56002853  0.87808789  0.47966986    -0.01900
Br1127     Br  0.62888338  0.75703085  0.49940203    -0.01900
Br1128     Br  0.62638869  0.80936573  0.56196725    -0.01900
C1129       C  0.43132119  0.90263833  0.53457346    -0.03000
C1130       C  0.47098753  0.91320949  0.53068902     0.06700
C1131       C  0.48964640  0.92890837  0.50075535    -0.03100
C1132       C  0.46691986  0.92618844  0.47354465    -0.03100
C1133       C  0.42508145  0.90607821  0.47623255     0.06800
C1134       C  0.40800082  0.89707094  0.50753258    -0.03300
Br1135     Br  0.35216113  0.87442712  0.51405564    -0.01800
Br1136     Br  0.40891335  0.89540694  0.57716432    -0.01900
Br1137     Br  0.49311307  0.94786083  0.43285726    -0.01900
Br1138     Br  0.54634077  0.95655968  0.49842850    -0.01900
C1139       C  0.16026568  0.71066313  0.73665567    -0.03000
C1140       C  0.17023817  0.68595296  0.71953024     0.06700
C1141       C  0.18166881  0.66265196  0.73719389    -0.03100
C1142       C  0.18020101  0.66177952  0.77128199    -0.03100
C1143       C  0.16724927  0.68415132  0.78852496     0.06800
C1144       C  0.15857733  0.70966886  0.77076500    -0.03300
Br1145     Br  0.14135368  0.74152474  0.79262965    -0.01800
Br1146     Br  0.14630459  0.74426311  0.71335279    -0.01900
Br1147     Br  0.19782870  0.63108804  0.79425568    -0.01900
Br1148     Br  0.20118207  0.63304862  0.71469203    -0.01900
C1149       C  0.01949094  0.63677884  0.65757553    -0.03000
C1150       C  0.04265650  0.65172831  0.62927956     0.06700
C1151       C  0.02453958  0.65299283  0.60065336    -0.03100
C1152       C  0.98290317  0.63495091  0.59938623    -0.03100
C1153       C  0.95924179  0.61669355  0.62707020     0.06800
C1154       C  0.97804234  0.61958323  0.65651731    -0.03300
Br1155     Br  0.94676308  0.59693467  0.69512377    -0.01800
Br1156     Br  0.04460519  0.63847460  0.69757854    -0.01900
Br1157     Br  0.95803819  0.63295950  0.55935938    -0.01900
Br1158     Br  0.05697867  0.67757033  0.56288258    -0.01900
C1159       C  0.09053087  0.55954346  0.48174355    -0.03000
C1160       C  0.10990784  0.53749602  0.48094747     0.06700
C1161       C  0.11456183  0.52225535  0.51051257    -0.03100
C1162       C  0.10919615  0.53636733  0.53989474    -0.03100
C1163       C  0.09842271  0.56524184  0.54003203     0.06800
C1164       C  0.08376179  0.57217903  0.51163900    -0.03300
Br1165     Br  0.05354230  0.59793356  0.51492849    -0.01800
Br1166     Br  0.07560325  0.57520269  0.44296347    -0.01900
Br1167     Br  0.12120800  0.51951063  0.57960893    -0.01900
Br1168     Br  0.13021718  0.48338934  0.51178576    -0.01900
C1169       C  0.17561491  0.74095127  0.49340861    -0.03000
C1170       C  0.18653271  0.75781561  0.52410952     0.06700
C1171       C  0.21663302  0.79809377  0.52613322    -0.03100
C1172       C  0.23606698  0.82004138  0.49795398    -0.03100
C1173       C  0.23068163  0.80062099  0.46848673     0.06800
C1174       C  0.19899215  0.76123275  0.46619895    -0.03300
Br1175     Br  0.19098842  0.73218188  0.42756501    -0.01800
Br1176     Br  0.13165351  0.68781113  0.48914931    -0.01900
Br1177     Br  0.26890678  0.87666770  0.49925206    -0.01900
Br1178     Br  0.23742247  0.82117292  0.56721212    -0.01900
C1179       C  0.31536933  0.76617559  0.57396843    -0.03000
C1180       C  0.29364649  0.76377766  0.60195829     0.06700
C1181       C  0.31397032  0.78447600  0.62953026    -0.03100
C1182       C  0.35570319  0.80426326  0.63005123    -0.03100
C1183       C  0.37707160  0.80104548  0.60372177     0.06800
C1184       C  0.35651278  0.78349244  0.57509628    -0.03300
Br1185     Br  0.38389671  0.78471006  0.53594381    -0.01800
Br1186     Br  0.28902758  0.74665976  0.53328644    -0.01900
Br1187     Br  0.38245472  0.83598218  0.66674432    -0.01900
Br1188     Br  0.28475623  0.78444387  0.66707171    -0.01900
C1189       C  0.36963021  0.48529052  0.77149796    -0.03000
C1190       C  0.34156251  0.49152190  0.78834091     0.06700
C1191       C  0.31837878  0.50212285  0.76963607    -0.03100
C1192       C  0.31961066  0.50182293  0.73546501    -0.03100
C1193       C  0.34706701  0.49505419  0.71881432     0.06800
C1194       C  0.37365950  0.48917652  0.73742183    -0.03300
Br1195     Br  0.41699874  0.48756427  0.71669660    -0.01800
Br1196     Br  0.40280664  0.47041008  0.79422438    -0.01900
Br1197     Br  0.28595867  0.51465919  0.71142059    -0.01900
Br1198     Br  0.28909161  0.52306896  0.79020564    -0.01900
C1199       C  0.35203510  0.37990025  0.58787513    -0.03000
C1200       C  0.34782687  0.39501065  0.61723542     0.06700
C1201       C  0.35624557  0.38221859  0.64601954    -0.03100
C1202       C  0.37635144  0.36133451  0.64522777    -0.03100
C1203       C  0.38769712  0.35300784  0.61542798     0.06800
C1204       C  0.37257215  0.35921884  0.58688686    -0.03300
Br1205     Br  0.38234055  0.34157678  0.54662870    -0.01800
Br1206     Br  0.33172200  0.38968896  0.54933553    -0.01900
Br1207     Br  0.39292571  0.34947583  0.68497432    -0.01900
Br1208     Br  0.34288312  0.39640105  0.68642914    -0.01900
C1209       C  0.27921992  0.46715391  0.48933433    -0.03000
C1210       C  0.26451621  0.46167815  0.52149629     0.06700
C1211       C  0.22282426  0.44502309  0.52552231    -0.03100
C1212       C  0.19875345  0.43957729  0.49857620    -0.03100
C1213       C  0.21574708  0.45367556  0.46807198     0.06800
C1214       C  0.25485109  0.46274225  0.46307476    -0.03300
Br1215     Br  0.27349326  0.46501980  0.41974959    -0.01800
Br1216     Br  0.33247809  0.48047688  0.47990434    -0.01900
Br1217     Br  0.14234032  0.40550597  0.50115679    -0.01900
Br1218     Br  0.19736036  0.43173109  0.56724240    -0.01900
C1219       C  0.44697737  0.52951702  0.50430198    -0.03000
C1220       C  0.45842758  0.54950619  0.53363798     0.06700
C1221       C  0.49480977  0.58543859  0.53440149    -0.03100
C1222       C  0.51426888  0.60496546  0.50557969    -0.03100
C1223       C  0.49583622  0.59005946  0.47593456     0.06800
C1224       C  0.46461066  0.54995054  0.47511424    -0.03300
Br1225     Br  0.44466293  0.52292888  0.43506388    -0.01800
Br1226     Br  0.40987649  0.47362056  0.50538201    -0.01900
Br1227     Br  0.56627717  0.65157657  0.50632344    -0.01900
Br1228     Br  0.51789908  0.60780690  0.57463065    -0.01900
C1229       C  0.41685989  0.66198215  0.63546111    -0.03000
C1230       C  0.43729830  0.64180851  0.63114364     0.06700
C1231       C  0.47890657  0.66407248  0.63139137    -0.03100
C1232       C  0.49883262  0.70533788  0.62510660    -0.03100
C1233       C  0.47687231  0.72437704  0.62123739     0.06800
C1234       C  0.43608265  0.70295122  0.62932046    -0.03300
Br1235     Br  0.40614387  0.72889155  0.63310625    -0.01800
Br1236     Br  0.36489839  0.63387588  0.65517039    -0.01900
Br1237     Br  0.55548604  0.73474931  0.62034084    -0.01900
Br1238     Br  0.50766636  0.63985374  0.64640293    -0.01900
C1239       C  0.26191174  0.61612249  0.60944938    -0.03000
C1240       C  0.22337614  0.59625100  0.62270151     0.06700
C1241       C  0.20881452  0.55835944  0.63664346    -0.03100
C1242       C  0.23024657  0.53854357  0.63300464    -0.03100
C1243       C  0.26737114  0.55731506  0.61652868     0.06800
C1244       C  0.28256471  0.59639447  0.60419412    -0.03300
Br1245     Br  0.33064898  0.62458251  0.57797437    -0.01800
Br1246     Br  0.28975584  0.67242523  0.60244401    -0.01900
Br1247     Br  0.20530879  0.48373924  0.64644726    -0.01900
Br1248     Br  0.16034965  0.53408416  0.66163196    -0.01900
loop_ 
_geom_bond_atom_site_label_1 
_geom_bond_atom_site_label_2 
_geom_bond_distance 
_geom_bond_site_symmetry_2 
_ccdc_geom_bond_type 
O1           C16   1.264       .  A
O1           Al9   1.930       .  S
C2           O12   1.260       .  A
C2            O3   1.254       .  A
C2         C1220   1.492       .  S
O3           Al5   1.896       .  S
O4            C6   1.265       .  A
O4           Al5   1.910       .  S
Al5          O13   1.900       .  S
Al5          O15   1.891       .  S
Al5          O14   1.786       .  S
C6           O19   1.271       .  A
C6         C1210   1.525       .  S
O7           C17   1.265       .  A
O7           Al9   1.913       .  S
O8           C21   1.258       .  A
O8          Al18   1.913       .  S
Al9          O22   1.953       .  S
Al9          O19   1.967       .  S
Al9          O14   1.803       .  S
O10          C17   1.265       .  A
O10         Al18   1.897       .  S
O11          C20   1.264       .  A
O11         Al18   1.925       .  S
O12         Al18   1.936       .  S
O13          C20   1.265       .  A
O14         Al18   1.806       .  S
O15          C16   1.254       .  A
C16        C1243   1.497       .  S
C17        C1200   1.472       .  S
C20        C1230   1.490       .  S
C21          O22   1.266       .  A
C21        C1193   1.519       .  S
O23          C38   1.269       .  A
O23         Al31   1.937       .  S
C24          O34   1.267       .  A
C24          O25   1.255       .  A
C24        C1163   1.479       .  S
O25         Al27   1.879       .  S
O26          C28   1.245       .  A
O26         Al27   1.855       .  S
Al27         O35   1.914       .  S
Al27         O37   1.852       .  S
Al27         O36   1.782       .  S
C28          O41   1.262       .  A
C28        C1170   1.486       .  S
O29          C39   1.271       .  A
O29         Al31   1.942       .  S
O30          C43   1.256       .  A
O30         Al40   1.904       .  S
Al31         O44   1.931       .  S
Al31         O41   1.943       .  S
Al31         O36   1.802       .  S
O32          C39   1.264       .  A
O32         Al40   1.894       .  S
O33          C42   1.260       .  A
O33         Al40   1.928       .  S
O34         Al40   1.946       .  S
O35          C42   1.260       .  A
O36         Al40   1.801       .  S
O37          C38   1.258       .  A
C38        C1180   1.480       .  S
C39        C1150   1.487       .  S
C42        C1240   1.495       .  S
C43          O44   1.262       .  A
C43        C1140   1.505       .  S
O45          C60   1.261       .  A
O45         Al53   1.907       .  S
C46          O56   1.267       .  A
C46          O47   1.263       .  A
C46        C1130   1.492       .  S
O47         Al49   1.909       .  S
O48          C50   1.254       .  A
O48         Al49   1.890       .  S
Al49         O57   1.881       .  S
Al49         O59   1.919       .  S
Al49         O58   1.786       .  S
C50          O63   1.261       .  A
C50        C1120   1.506       .  S
O51          C61   1.267       .  A
O51         Al53   1.925       .  S
O52          C65   1.265       .  A
O52         Al62   1.933       .  S
Al53         O66   1.906       .  S
Al53         O63   1.938       .  S
Al53         O58   1.810       .  S
O54          C61   1.260       .  A
O54         Al62   1.887       .  S
O55          C64   1.254       .  A
O55         Al62   1.905       .  S
O56         Al62   1.935       .  S
O57          C64   1.255       .  A
O58         Al62   1.804       .  S
O59          C60   1.264       .  A
C60        C1233   1.487       .  S
C61        C1110   1.485       .  S
C64        C1183   1.493       .  S
C65          O66   1.259       .  A
C65        C1103   1.508       .  S
O67          C82   1.270       .  A
O67         Al75   1.956       .  S
C68          O78   1.264       .  A
C68          O69   1.253       .  A
C68        C1160   1.500       .  S
O69         Al71   1.866       .  S
O70          C72   1.263       .  A
O70         Al71   1.921       .  S
Al71         O79   1.934       .  S
Al71         O81   1.867       .  S
Al71         O80   1.767       .  S
C72          O85   1.269       .  A
C72        C1213   1.502       .  S
O73          C83   1.276       .  A
O73         Al75   1.972       .  S
O74          C87   1.265       .  A
O74         Al84   1.939       .  S
Al75         O88   1.940       .  S
Al75         O85   1.947       .  S
Al75         O80   1.789       .  S
O76          C83   1.257       .  A
O76         Al84   1.856       .  S
O77          C86   1.259       .  A
O77         Al84   1.895       .  S
O78         Al84   1.954       .  S
O79          C86   1.270       .  A
O80         Al84   1.793       .  S
O81          C82   1.254       .  A
C82        C1090   1.496       .  S
C83        C1070   1.477       .  S
C86        C1080   1.479       .  S
C87          O88   1.265       .  A
C87        C1060   1.532       .  S
O89         C104   1.266       .  A
O89         Al97   1.914       .  S
C90         O100   1.271       .  A
C90          O91   1.261       .  A
C90        C1133   1.504       .  S
O91         Al93   1.893       .  S
O92          C94   1.252       .  A
O92         Al93   1.900       .  S
Al93        O101   1.891       .  S
Al93        O103   1.924       .  S
Al93        O102   1.776       .  S
C94         O107   1.258       .  A
C94        C1173   1.494       .  S
O95         C105   1.270       .  A
O95         Al97   1.915       .  S
O96         C109   1.263       .  A
O96        Al106   1.934       .  S
Al97        O110   1.920       .  S
Al97        O107   1.940       .  S
Al97        O102   1.806       .  S
O98         C105   1.267       .  A
O98        Al106   1.918       .  S
O99         C108   1.256       .  A
O99        Al106   1.912       .  S
O100       Al106   1.948       .  S
O101        C108   1.257       .  A
O102       Al106   1.791       .  S
O103        C104   1.272       .  A
C104       C1083   1.483       .  S
C105       C1040   1.474       .  S
C108       C1053   1.486       .  S
C109        O110   1.260       .  A
C109       C1030   1.507       .  S
O111        C126   1.276       .  A
O111       Al119   1.961       .  S
C112        O122   1.269       .  A
C112        O113   1.265       .  A
C112       C1223   1.496       .  S
O113       Al115   1.895       .  S
O114        C116   1.255       .  A
O114       Al115   1.904       .  S
Al115       O123   1.906       .  S
Al115       O125   1.875       .  S
Al115       O124   1.777       .  S
C116        O129   1.256       .  A
C116       C1123   1.489       .  S
O117        C127   1.275       .  A
O117       Al119   1.965       .  S
O118        C131   1.259       .  A
O118       Al128   1.918       .  S
Al119       O132   1.884       .  S
Al119       O129   1.923       .  S
Al119       O124   1.798       .  S
O120        C127   1.256       .  A
O120       Al128   1.860       .  S
O121        C130   1.258       .  A
O121       Al128   1.909       .  S
O122       Al128   1.949       .  S
O123        C130   1.258       .  A
O124       Al128   1.797       .  S
O125        C126   1.261       .  A
C126       C1050   1.484       .  S
C127       C1020   1.483       .  S
C130       C1093   1.501       .  S
C131        O132   1.251       .  A
C131       C1010   1.482       .  S
O133        C148   1.259       .  A
O133       Al141   1.902       .  S
C134        O144   1.263       .  A
C134        O135   1.268       .  A
C134        C980   1.484       .  S
O135       Al137   1.930       .  S
O136        C138   1.253       .  A
O136       Al137   1.872       .  S
Al137       O145   1.898       .  S
Al137       O147   1.923       .  S
Al137       O146   1.815       .  S
C138        O151   1.271       .  A
C138       C1023   1.496       .  S
O139        C149   1.261       .  A
O139       Al141   1.953       .  S
O140        C153   1.261       .  A
O140       Al150   1.887       .  S
Al141       O154   1.946       .  S
Al141       O151   1.955       .  S
Al141       O146   1.812       .  S
O142        C149   1.250       .  A
O142       Al150   1.886       .  S
O143        C152   1.249       .  A
O143       Al150   1.868       .  S
O144       Al150   1.875       .  S
O145        C152   1.248       .  A
O146       Al150   1.789       .  S
O147        C148   1.268       .  A
C148        C963   1.497       .  S
C149        C970   1.501       .  S
C152        C990   1.479       .  S
C153        O154   1.268       .  A
C153       C1000   1.497       .  S
O155        C170   1.268       .  A
O155       Al163   1.930       .  S
C156        O166   1.251       .  A
C156        O157   1.261       .  A
C156        C983   1.483       .  S
O157       Al159   1.946       .  S
O158        C160   1.261       .  A
O158       Al159   1.887       .  S
Al159       O167   1.891       .  S
Al159       O169   1.936       .  S
Al159       O168   1.789       .  S
C160        O173   1.270       .  A
C160       C1203   1.473       .  S
O161        C171   1.267       .  A
O161       Al163   1.923       .  S
O162        C175   1.254       .  A
O162       Al172   1.880       .  S
Al163       O176   1.937       .  S
Al163       O173   1.949       .  S
Al163       O168   1.793       .  S
O164        C171   1.268       .  A
O164       Al172   1.928       .  S
O165        C174   1.273       .  A
O165       Al172   1.943       .  S
O166       Al172   1.888       .  S
O167        C174   1.258       .  A
O168       Al172   1.766       .  S
O169        C170   1.266       .  A
C170        C920   1.514       .  S
C171        C930   1.494       .  S
C174        C940   1.481       .  S
C175        O176   1.262       .  A
C175        C950   1.484       .  S
O177        C192   1.261       .  A
O177       Al185   1.917       .  S
C178        O188   1.264       .  A
C178        O179   1.263       .  A
C178        C900   1.497       .  S
O179       Al181   1.926       .  S
O180        C182   1.259       .  A
O180       Al181   1.861       .  S
Al181       O189   1.927       .  S
Al181       O191   1.917       .  S
Al181       O190   1.786       .  S
C182        O195   1.272       .  A
C182       C1043   1.473       .  S
O183        C193   1.262       .  A
O183       Al185   1.932       .  S
O184        C197   1.258       .  A
O184       Al194   1.873       .  S
Al185       O198   1.938       .  S
Al185       O195   1.952       .  S
Al185       O190   1.794       .  S
O186        C193   1.255       .  A
O186       Al194   1.892       .  S
O187        C196   1.258       .  A
O187       Al194   1.892       .  S
O188       Al194   1.907       .  S
O189        C196   1.267       .  A
O190       Al194   1.772       .  S
O191        C192   1.255       .  A
C192        C890   1.523       .  S
C193        C933   1.486       .  S
C196        C910   1.494       .  S
C197        O198   1.270       .  A
C197        C993   1.481       .  S
O199        C214   1.262       .  A
O199       Al207   1.899       .  S
C200        O210   1.261       .  A
C200        O201   1.269       .  A
C200        C870   1.500       .  S
O201       Al203   1.962       .  S
O202        C204   1.256       .  A
O202       Al203   1.882       .  S
Al203       O211   1.891       .  S
Al203       O213   1.931       .  S
Al203       O212   1.782       .  S
C204        O217   1.270       .  A
C204       C1153   1.491       .  S
O205        C215   1.267       .  A
O205       Al207   1.954       .  S
O206        C219   1.261       .  A
O206       Al216   1.875       .  S
Al207       O220   1.978       .  S
Al207       O217   1.963       .  S
Al207       O212   1.785       .  S
O208        C215   1.260       .  A
O208       Al216   1.922       .  S
O209        C218   1.257       .  A
O209       Al216   1.916       .  S
O210       Al216   1.860       .  S
O211        C218   1.253       .  A
O212       Al216   1.769       .  S
O213        C214   1.268       .  A
C214        C860   1.492       .  S
C215        C973   1.499       .  S
C218        C880   1.483       .  S
C219        O220   1.277       .  A
C219        C943   1.494       .  S
O221        C236   1.263       .  A
O221       Al229   1.910       .  S
C222        O232   1.250       .  A
C222        O223   1.264       .  A
C222        C873   1.481       .  S
O223       Al225   1.957       .  S
O224        C226   1.265       .  A
O224       Al225   1.891       .  S
Al225       O233   1.910       .  S
Al225       O235   1.934       .  S
Al225       O234   1.793       .  S
C226        O239   1.268       .  A
C226       C1073   1.478       .  S
O227        C237   1.267       .  A
O227       Al229   1.932       .  S
O228        C241   1.254       .  A
O228       Al238   1.881       .  S
Al229       O242   1.936       .  S
Al229       O239   1.943       .  S
Al229       O234   1.787       .  S
O230        C237   1.263       .  A
O230       Al238   1.906       .  S
O231        C240   1.272       .  A
O231       Al238   1.940       .  S
O232       Al238   1.882       .  S
O233        C240   1.261       .  A
O234       Al238   1.763       .  S
O235        C236   1.264       .  A
C236        C843   1.505       .  S
C237        C850   1.491       .  S
C240       C1003   1.495       .  S
C241        O242   1.262       .  A
C241        C913   1.479       .  S
O243        C258   1.255       .  A
O243       Al251   1.907       .  S
C244        O254   1.260       .  A
C244        O245   1.263       .  A
C244        C903   1.482       .  S
O245       Al247   1.917       .  S
O246        C248   1.265       .  A
O246       Al247   1.882       .  S
Al247       O255   1.903       .  S
Al247       O257   1.922       .  S
Al247       O256   1.796       .  S
C248        O261   1.276       .  A
C248       C1113   1.485       .  S
O249        C259   1.257       .  A
O249       Al251   1.938       .  S
O250        C263   1.272       .  A
O250       Al260   1.919       .  S
Al251       O264   1.921       .  S
Al251       O261   1.942       .  S
Al251       O256   1.810       .  S
O252        C259   1.252       .  A
O252       Al260   1.906       .  S
O253        C262   1.256       .  A
O253       Al260   1.878       .  S
O254       Al260   1.893       .  S
O255        C262   1.253       .  A
O256       Al260   1.779       .  S
O257        C258   1.260       .  A
C258        C830   1.504       .  S
C259        C853   1.502       .  S
C262        C953   1.492       .  S
C263        O264   1.268       .  A
C263        C883   1.488       .  S
O265        C280   1.268       .  A
O265       Al273   1.943       .  S
C266        O276   1.264       .  A
C266        O267   1.262       .  A
C266        C800   1.488       .  S
O267       Al269   1.905       .  S
O268        C270   1.254       .  A
O268       Al269   1.889       .  S
Al269       O277   1.924       .  S
Al269       O279   1.862       .  S
Al269       O278   1.780       .  S
C270        O283   1.258       .  A
C270        C793   1.484       .  S
O271        C281   1.272       .  A
O271       Al273   1.944       .  S
O272        C285   1.254       .  A
O272       Al282   1.899       .  S
Al273       O286   1.885       .  S
Al273       O283   1.917       .  S
Al273       O278   1.801       .  S
O274        C281   1.261       .  A
O274       Al282   1.870       .  S
O275        C284   1.258       .  A
O275       Al282   1.905       .  S
O276       Al282   1.934       .  S
O277        C284   1.265       .  A
O278       Al282   1.794       .  S
O279        C280   1.258       .  A
C280        C823   1.477       .  S
C281        C780   1.472       .  S
C284        C810   1.491       .  S
C285        O286   1.251       .  A
C285        C960   1.475       .  S
O287        C302   1.269       .  A
O287       Al295   1.932       .  S
C288        O298   1.267       .  A
C288        O289   1.259       .  A
C288        C803   1.486       .  S
O289       Al291   1.875       .  S
O290        C292   1.249       .  A
O290       Al291   1.890       .  S
Al291       O299   1.874       .  S
Al291       O301   1.913       .  S
Al291       O300   1.774       .  S
C292        O305   1.261       .  A
C292        C750   1.491       .  S
O293        C303   1.273       .  A
O293       Al295   1.935       .  S
O294        C307   1.269       .  A
O294       Al304   1.938       .  S
Al295       O308   1.924       .  S
Al295       O305   1.953       .  S
Al295       O300   1.799       .  S
O296        C303   1.264       .  A
O296       Al304   1.902       .  S
O297        C306   1.258       .  A
O297       Al304   1.920       .  S
O298       Al304   1.935       .  S
O299        C306   1.252       .  A
O300       Al304   1.793       .  S
O301        C302   1.269       .  A
C302        C770   1.493       .  S
C303        C740   1.477       .  S
C306        C760   1.478       .  S
C307        O308   1.261       .  A
C307        C923   1.513       .  S
O309        C324   1.266       .  A
O309       Al317   1.956       .  S
C310        O320   1.266       .  A
C310        O311   1.257       .  A
C310        C710   1.490       .  S
O311       Al313   1.890       .  S
O312        C314   1.261       .  A
O312       Al313   1.892       .  S
Al313       O321   1.927       .  S
Al313       O323   1.860       .  S
Al313       O322   1.769       .  S
C314        O327   1.264       .  A
C314        C720   1.488       .  S
O315        C325   1.266       .  A
O315       Al317   1.938       .  S
O316        C329   1.262       .  A
O316       Al326   1.909       .  S
Al317       O330   1.908       .  S
Al317       O327   1.928       .  S
Al317       O322   1.805       .  S
O318        C325   1.260       .  A
O318       Al326   1.887       .  S
O319        C328   1.255       .  A
O319       Al326   1.900       .  S
O320       Al326   1.952       .  S
O321        C328   1.263       .  A
O322       Al326   1.793       .  S
O323        C324   1.256       .  A
C324        C730   1.495       .  S
C325        C703   1.478       .  S
C328        C773   1.489       .  S
C329        O330   1.263       .  A
C329        C833   1.481       .  S
O331        C346   1.269       .  A
O331       Al339   1.937       .  S
C332        O342   1.264       .  A
C332        O333   1.263       .  A
C332        C690   1.487       .  S
O333       Al335   1.895       .  S
O334        C336   1.254       .  A
O334       Al335   1.897       .  S
Al335       O343   1.913       .  S
Al335       O345   1.875       .  S
Al335       O344   1.780       .  S
C336        O349   1.255       .  A
C336        C790   1.485       .  S
O337        C347   1.271       .  A
O337       Al339   1.939       .  S
O338        C351   1.256       .  A
O338       Al348   1.908       .  S
Al339       O352   1.885       .  S
Al339       O349   1.914       .  S
Al339       O344   1.796       .  S
O340        C347   1.262       .  A
O340       Al348   1.879       .  S
O341        C350   1.265       .  A
O341       Al348   1.930       .  S
O342       Al348   1.932       .  S
O343        C350   1.262       .  A
O344       Al348   1.794       .  S
O345        C346   1.260       .  A
C346        C763   1.476       .  S
C347        C680   1.473       .  S
C350        C733   1.497       .  S
C351        O352   1.251       .  A
C351        C863   1.484       .  S
O353        C368   1.268       .  A
O353       Al361   1.947       .  S
C354        O364   1.266       .  A
C354        O355   1.257       .  A
C354        C713   1.489       .  S
O355       Al357   1.901       .  S
O356        C358   1.258       .  A
O356       Al357   1.875       .  S
Al357       O365   1.894       .  S
Al357       O367   1.900       .  S
Al357       O366   1.759       .  S
C358        O371   1.273       .  A
C358        C753   1.509       .  S
O359        C369   1.268       .  A
O359       Al361   1.935       .  S
O360        C373   1.263       .  A
O360       Al370   1.904       .  S
Al361       O374   1.948       .  S
Al361       O371   1.972       .  S
Al361       O366   1.780       .  S
O362        C369   1.260       .  A
O362       Al370   1.889       .  S
O363        C372   1.265       .  A
O363       Al370   1.934       .  S
O364       Al370   1.951       .  S
O365        C372   1.264       .  A
O366       Al370   1.772       .  S
O367        C368   1.254       .  A
C368        C813   1.505       .  S
C369        C660   1.481       .  S
C372        C673   1.490       .  S
C373        O374   1.266       .  A
C373        C893   1.522       .  S
O375        C390   1.261       .  A
O375       Al383   1.900       .  S
C376        O386   1.264       .  A
C376        O377   1.265       .  A
C376        C693   1.474       .  S
O377       Al379   1.906       .  S
O378        C380   1.252       .  A
O378       Al379   1.896       .  S
Al379       O387   1.893       .  S
Al379       O389   1.917       .  S
Al379       O388   1.772       .  S
C380        O393   1.261       .  A
C380        C723   1.492       .  S
O381        C391   1.267       .  A
O381       Al383   1.919       .  S
O382        C395   1.264       .  A
O382       Al392   1.911       .  S
Al383       O396   1.931       .  S
Al383       O393   1.945       .  S
Al383       O388   1.798       .  S
O384        C391   1.265       .  A
O384       Al392   1.914       .  S
O385        C394   1.256       .  A
O385       Al392   1.918       .  S
O386       Al392   1.905       .  S
O387        C394   1.253       .  A
O388       Al392   1.786       .  S
O389        C390   1.270       .  A
C390        C670   1.479       .  S
C391        C650   1.475       .  S
C394        C820   1.483       .  S
C395        O396   1.264       .  A
C395        C840   1.500       .  S
O397        C412   1.267       .  A
O397       Al405   1.945       .  S
C398        O408   1.253       .  A
C398        O399   1.264       .  A
C398        C620   1.501       .  S
O399       Al401   1.962       .  S
O400        C402   1.265       .  A
O400       Al401   1.883       .  S
Al401       O409   1.907       .  S
Al401       O411   1.920       .  S
Al401       O410   1.801       .  S
C402        O415   1.272       .  A
C402        C743   1.483       .  S
O403        C413   1.265       .  A
O403       Al405   1.945       .  S
O404        C417   1.256       .  A
O404       Al414   1.860       .  S
Al405       O418   1.952       .  S
Al405       O415   1.949       .  S
Al405       O410   1.805       .  S
O406        C413   1.254       .  A
O406       Al414   1.889       .  S
O407        C416   1.266       .  A
O407       Al414   1.933       .  S
O408       Al414   1.872       .  S
O409        C416   1.262       .  A
O410       Al414   1.775       .  S
O411        C412   1.258       .  A
C412       C1190   1.529       .  S
C413        C613   1.496       .  S
C416        C633   1.491       .  S
C417        O418   1.269       .  A
C417        C643   1.504       .  S
O419        C434   1.259       .  A
O419       Al427   1.942       .  S
C420        O430   1.255       .  A
C420        O421   1.266       .  A
C420        C583   1.490       .  S
O421       Al423   1.946       .  S
O422        C424   1.271       .  A
O422       Al423   1.919       .  S
Al423       O431   1.913       .  S
Al423       O433   1.930       .  S
Al423       O432   1.798       .  S
C424        O437   1.272       .  A
C424        C653   1.479       .  S
O425        C435   1.263       .  A
O425       Al427   1.957       .  S
O426        C439   1.268       .  A
O426       Al436   1.921       .  S
Al427       O440   1.932       .  S
Al427       O437   1.921       .  S
Al427       O432   1.797       .  S
O428        C435   1.252       .  A
O428       Al436   1.893       .  S
O429        C438   1.255       .  A
O429       Al436   1.870       .  S
O430       Al436   1.877       .  S
O431        C438   1.258       .  A
O432       Al436   1.782       .  S
O433        C434   1.258       .  A
C434       C1063   1.531       .  S
C435        C610   1.521       .  S
C438        C593   1.479       .  S
C439        O440   1.271       .  A
C439        C600   1.503       .  S
O441        C456   1.258       .  A
O441       Al449   1.917       .  S
C442        O452   1.263       .  A
C442        O443   1.269       .  A
C442        C580   1.497       .  S
O443       Al445   1.944       .  S
O444        C446   1.260       .  A
O444       Al445   1.878       .  S
Al445       O453   1.933       .  S
Al445       O455   1.923       .  S
Al445       O454   1.810       .  S
C446        O459   1.267       .  A
C446        C683   1.474       .  S
O447        C457   1.258       .  A
O447       Al449   1.936       .  S
O448        C461   1.266       .  A
O448       Al458   1.886       .  S
Al449       O462   1.927       .  S
Al449       O459   1.926       .  S
Al449       O454   1.811       .  S
O450        C457   1.248       .  A
O450       Al458   1.883       .  S
O451        C460   1.252       .  A
O451       Al458   1.887       .  S
O452       Al458   1.902       .  S
O453        C460   1.259       .  A
O454       Al458   1.790       .  S
O455        C456   1.260       .  A
C456       C1143   1.513       .  S
C457        C560   1.497       .  S
C460        C640   1.518       .  S
C461        O462   1.270       .  A
C461        C573   1.479       .  S
O463        C478   1.249       .  A
O463       Al471   1.880       .  S
C464        O474   1.259       .  A
C464        O465   1.268       .  A
C464        C550   1.490       .  S
O465       Al467   1.941       .  S
O466        C468   1.257       .  A
O466       Al467   1.855       .  S
Al467       O475   1.879       .  S
Al467       O477   1.927       .  S
Al467       O476   1.811       .  S
C468        O481   1.271       .  A
C468        C700   1.480       .  S
O469        C479   1.250       .  A
O469       Al471   1.909       .  S
O470        C483   1.266       .  A
O470       Al480   1.883       .  S
Al471       O484   1.935       .  S
Al471       O481   1.944       .  S
Al471       O476   1.817       .  S
O472        C479   1.247       .  A
O472       Al480   1.885       .  S
O473        C482   1.253       .  A
O473       Al480   1.891       .  S
O474       Al480   1.865       .  S
O475        C482   1.249       .  A
O476       Al480   1.791       .  S
O477        C478   1.259       .  A
C478       C1100   1.499       .  S
C479        C543   1.485       .  S
C482        C570   1.488       .  S
C483        O484   1.271       .  A
C483        C630   1.492       .  S
O485        C500   1.259       .  A
O485       Al493   1.921       .  S
C486        O496   1.257       .  A
C486        O487   1.260       .  A
C486        C553   1.498       .  S
O487       Al489   1.938       .  S
O488        C490   1.268       .  A
O488       Al489   1.905       .  S
Al489       O497   1.906       .  S
Al489       O499   1.920       .  S
Al489       O498   1.796       .  S
C490        O503   1.269       .  A
C490        C663   1.482       .  S
O491        C501   1.267       .  A
O491       Al493   1.926       .  S
O492        C505   1.257       .  A
O492       Al502   1.900       .  S
Al493       O506   1.923       .  S
Al493       O503   1.945       .  S
Al493       O498   1.793       .  S
O494        C501   1.266       .  A
O494       Al502   1.917       .  S
O495        C504   1.272       .  A
O495       Al502   1.933       .  S
O496       Al502   1.914       .  S
O497        C504   1.263       .  A
O498       Al502   1.779       .  S
O499        C500   1.261       .  A
C500       C1033   1.514       .  S
C501        C563   1.495       .  S
C504        C530   1.483       .  S
C505        O506   1.258       .  A
C505        C590   1.489       .  S
O507        C522   1.257       .  A
O507       Al515   1.903       .  S
C508        O518   1.268       .  A
C508        O509   1.270       .  A
C508        C623   1.481       .  S
O509       Al511   1.925       .  S
O510        C512   1.260       .  A
O510       Al511   1.875       .  S
Al511       O519   1.940       .  S
Al511       O521   1.889       .  S
Al511       O520   1.786       .  S
C512        O525   1.263       .  A
C512        C783   1.473       .  S
O513        C523   1.255       .  A
O513       Al515   1.931       .  S
O514        C527   1.272       .  A
O514       Al524   1.895       .  S
Al515       O528   1.939       .  S
Al515       O525   1.914       .  S
Al515       O520   1.798       .  S
O516        C523   1.243       .  A
O516       Al524   1.862       .  S
O517        C526   1.247       .  A
O517       Al524   1.892       .  S
O518       Al524   1.908       .  S
O519        C526   1.260       .  A
O520       Al524   1.779       .  S
O521        C522   1.255       .  A
C522       C1013   1.486       .  S
C523        C540   1.481       .  S
C526        C603   1.499       .  S
C527        O528   1.272       .  A
C527        C533   1.490       .  S
C529        C530   1.406       .  A
C529        C534   1.400       .  A
C529       Br536   1.919       .  S
C530        C531   1.410       .  A
C531        C532   1.416       .  A
C531       Br538   1.929       .  S
C532        C533   1.416       .  A
C532       Br537   1.923       .  S
C533        C534   1.406       .  A
C534       Br535   1.925       .  S
C539        C540   1.413   1_556  A
C539        C544   1.400       .  A
C539       Br546   1.921       .  S
C540        C541   1.410       .  A
C541        C542   1.415   1_554  A
C541       Br548   1.923       .  S
C542        C543   1.407       .  A
C542       Br547   1.912       .  S
C543        C544   1.401       .  A
C544       Br545   1.916       .  S
C549        C550   1.404   1_554  A
C549        C554   1.404       .  A
C549       Br556   1.922       .  S
C550        C551   1.412       .  A
C551        C552   1.417       .  A
C551       Br558   1.925       .  S
C552        C553   1.411   1_556  A
C552       Br557   1.913       .  S
C553        C554   1.410       .  A
C554       Br555   1.906       .  S
C559        C560   1.410   1_554  A
C559        C564   1.414       .  A
C559       Br566   1.908       .  S
C560        C561   1.409       .  A
C561        C562   1.414       .  A
C561       Br568   1.925       .  S
C562        C563   1.409   1_556  A
C562       Br567   1.910       .  S
C563        C564   1.411       .  A
C564       Br565   1.930       .  S
C569        C570   1.412       .  A
C569        C574   1.400       .  A
C569       Br576   1.938       .  S
C570        C571   1.417       .  A
C571        C572   1.412       .  A
C571       Br578   1.924       .  S
C572        C573   1.409       .  A
C572       Br577   1.930       .  S
C573        C574   1.410       .  A
C574       Br575   1.920       .  S
C579        C580   1.413       .  A
C579        C584   1.408       .  A
C579       Br586   1.931       .  S
C580        C581   1.412   1_556  A
C581        C582   1.413       .  A
C581       Br588   1.908       .  S
C582        C583   1.406       .  A
C582       Br587   1.926       .  S
C583        C584   1.407   1_554  A
C584       Br585   1.905       .  S
C589        C590   1.410       .  A
C589        C594   1.399       .  A
C589       Br596   1.911       .  S
C590        C591   1.414       .  A
C591        C592   1.419       .  A
C591       Br598   1.925       .  S
C592        C593   1.413       .  A
C592       Br597   1.928       .  S
C593        C594   1.404       .  A
C594       Br595   1.936       .  S
C599        C600   1.417       .  A
C599        C604   1.403       .  A
C599       Br606   1.932       .  S
C600        C601   1.418       .  A
C601        C602   1.419       .  A
C601       Br608   1.926       .  S
C602        C603   1.416       .  A
C602       Br607   1.931       .  S
C603        C604   1.419       .  A
C604       Br605   1.943       .  S
C609        C610   1.427   1_556  A
C609        C614   1.414       .  A
C609       Br616   1.923       .  S
C610        C611   1.427       .  A
C611        C612   1.420       .  A
C611       Br618   1.930       .  S
C612        C613   1.403   1_554  A
C612       Br617   1.915       .  S
C613        C614   1.402       .  A
C614       Br615   1.928       .  S
C619        C620   1.417       .  A
C619        C624   1.417   1_556  A
C619       Br626   1.924       .  S
C620        C621   1.413   1_556  A
C621        C622   1.398       .  A
C621       Br628   1.909       .  S
C622        C623   1.404       .  A
C622       Br627   1.932       .  S
C623        C624   1.410       .  A
C624       Br625   1.925       .  S
C629        C630   1.409       .  A
C629        C634   1.400       .  A
C629       Br636   1.936       .  S
C630        C631   1.413       .  A
C631        C632   1.416       .  A
C631       Br638   1.929       .  S
C632        C633   1.416       .  A
C632       Br637   1.927       .  S
C633        C634   1.413       .  A
C634       Br635   1.918       .  S
C639        C640   1.426       .  A
C639        C644   1.421       .  A
C639       Br646   1.929       .  S
C640        C641   1.428       .  A
C641        C642   1.408       .  A
C641       Br648   1.948       .  S
C642        C643   1.418       .  A
C642       Br647   1.943       .  S
C643        C644   1.411       .  A
C644       Br645   1.927       .  S
C649        C650   1.410       .  A
C649        C654   1.408   1_655  A
C649       Br656   1.928       .  S
C650        C651   1.407       .  A
C651        C652   1.410   1_655  A
C651       Br658   1.924       .  S
C652        C653   1.405       .  A
C652       Br657   1.915       .  S
C653        C654   1.406       .  A
C654       Br655   1.925       .  S
C659        C660   1.410       .  A
C659        C664   1.408   1_545  A
C659       Br666   1.931       .  S
C660        C661   1.407       .  A
C661        C662   1.412   1_545  A
C661       Br668   1.918       .  S
C662        C663   1.407       .  A
C662       Br667   1.923       .  S
C663        C664   1.411       .  A
C664       Br665   1.926       .  S
C669        C670   1.404       .  A
C669        C674   1.403       .  A
C669       Br676   1.925       .  S
C670        C671   1.411       .  A
C671        C672   1.414       .  A
C671       Br678   1.932       .  S
C672        C673   1.416       .  A
C672       Br677   1.924       .  S
C673        C674   1.410       .  A
C674       Br675   1.926       .  S
C679        C680   1.407       .  A
C679        C684   1.405   1_655  A
C679       Br686   1.927       .  S
C680        C681   1.409       .  A
C681        C682   1.411   1_655  A
C681       Br688   1.926       .  S
C682        C683   1.408       .  A
C682       Br687   1.925       .  S
C683        C684   1.408       .  A
C684       Br685   1.928       .  S
C689        C690   1.407   1_554  A
C689        C694   1.404       .  A
C689       Br696   1.920       .  S
C690        C691   1.416       .  A
C691        C692   1.408       .  A
C691       Br698   1.930       .  S
C692        C693   1.407   1_556  A
C692       Br697   1.923       .  S
C693        C694   1.409       .  A
C694       Br695   1.929       .  S
C699        C700   1.413       .  A
C699        C704   1.401   1_565  A
C699       Br706   1.932       .  S
C700        C701   1.410       .  A
C701        C702   1.416   1_565  A
C701       Br708   1.922       .  S
C702        C703   1.410       .  A
C702       Br707   1.925       .  S
C703        C704   1.408       .  A
C704       Br705   1.930       .  S
C709        C710   1.407       .  A
C709        C714   1.412   1_556  A
C709       Br716   1.923       .  S
C710        C711   1.405       .  A
C711        C712   1.414   1_556  A
C711       Br718   1.925       .  S
C712        C713   1.414       .  A
C712       Br717   1.915       .  S
C713        C714   1.405       .  A
C714       Br715   1.919       .  S
C719        C720   1.402   1_554  A
C719        C724   1.395       .  A
C719       Br726   1.921       .  S
C720        C721   1.413       .  A
C721        C722   1.422   1_556  A
C721       Br728   1.924       .  S
C722        C723   1.414       .  A
C722       Br727   1.920       .  S
C723        C724   1.407       .  A
C724       Br725   1.903       .  S
C729        C730   1.411       .  A
C729        C734   1.392       .  A
C729       Br736   1.936       .  S
C730        C731   1.417       .  A
C731        C732   1.424       .  A
C731       Br738   1.929       .  S
C732        C733   1.421       .  A
C732       Br737   1.928       .  S
C733        C734   1.411       .  A
C734       Br735   1.933       .  S
C739        C740   1.414       .  A
C739        C744   1.412       .  A
C739       Br746   1.928       .  S
C740        C741   1.408       .  A
C741        C742   1.409       .  A
C741       Br748   1.927       .  S
C742        C743   1.409       .  A
C742       Br747   1.921       .  S
C743        C744   1.407       .  A
C744       Br745   1.927       .  S
C749        C750   1.407       .  A
C749        C754   1.422   1_556  A
C749       Br756   1.923   1_556  S
C750        C751   1.397       .  A
C751        C752   1.399       .  A
C751       Br758   1.906       .  S
C752        C753   1.427   1_556  A
C752       Br757   1.944       .  S
C753        C754   1.427       .  A
C754       Br755   1.930       .  S
C759        C760   1.412       .  A
C759        C764   1.400       .  A
C759       Br766   1.929       .  S
C760        C761   1.410       .  A
C761        C762   1.415       .  A
C761       Br768   1.927       .  S
C762        C763   1.412       .  A
C762       Br767   1.926       .  S
C763        C764   1.407       .  A
C764       Br765   1.933       .  S
C769        C770   1.408       .  A
C769        C774   1.404       .  A
C769       Br776   1.925       .  S
C770        C771   1.413       .  A
C771        C772   1.417       .  A
C771       Br778   1.924       .  S
C772        C773   1.412       .  A
C772       Br777   1.924       .  S
C773        C774   1.408       .  A
C774       Br775   1.921       .  S
C779        C780   1.410       .  A
C779        C784   1.401       .  A
C779       Br786   1.930       .  S
C780        C781   1.409       .  A
C781        C782   1.412       .  A
C781       Br788   1.927       .  S
C782        C783   1.411       .  A
C782       Br787   1.928       .  S
C783        C784   1.409       .  A
C784       Br785   1.936       .  S
C789        C790   1.407   1_554  A
C789        C794   1.413       .  A
C789       Br796   1.917       .  S
C790        C791   1.409       .  A
C791        C792   1.408       .  A
C791       Br798   1.925       .  S
C792        C793   1.407   1_556  A
C792       Br797   1.919       .  S
C793        C794   1.413       .  A
C794       Br795   1.927       .  S
C799        C800   1.410       .  A
C799        C804   1.414   1_554  A
C799       Br806   1.922       .  S
C800        C801   1.412       .  A
C801        C802   1.406       .  A
C801       Br808   1.928       .  S
C802        C803   1.411   1_554  A
C802       Br807   1.926       .  S
C803        C804   1.411       .  A
C804       Br805   1.925       .  S
C809        C810   1.404       .  A
C809        C814   1.401       .  A
C809       Br816   1.935       .  S
C810        C811   1.415       .  A
C811        C812   1.418       .  A
C811       Br818   1.933       .  S
C812        C813   1.421       .  A
C812       Br817   1.929       .  S
C813        C814   1.429       .  A
C814       Br815   1.941       .  S
C819        C820   1.413       .  A
C819        C824   1.399       .  A
C819       Br826   1.927       .  S
C820        C821   1.413       .  A
C821        C822   1.417       .  A
C821       Br828   1.926       .  S
C822        C823   1.411       .  A
C822       Br827   1.927       .  S
C823        C824   1.405       .  A
C824       Br825   1.932       .  S
C829        C830   1.424       .  A
C829        C834   1.413       .  A
C829       Br836   1.932       .  S
C830        C831   1.415       .  A
C831        C832   1.410       .  A
C831       Br838   1.924       .  S
C832        C833   1.407       .  A
C832       Br837   1.929       .  S
C833        C834   1.407       .  A
C834       Br835   1.933       .  S
C839        C840   1.416       .  A
C839        C844   1.413       .  A
C839       Br846   1.939       .  S
C840        C841   1.419       .  A
C841        C842   1.411       .  A
C841       Br848   1.936       .  S
C842        C843   1.418       .  A
C842       Br847   1.937       .  S
C843        C844   1.423       .  A
C844       Br845   1.935       .  S
C849        C850   1.409       .  A
C849        C854   1.413       .  A
C849       Br856   1.925       .  S
C850        C851   1.409       .  A
C851        C852   1.416       .  A
C851       Br858   1.926       .  S
C852        C853   1.413       .  A
C852       Br857   1.916       .  S
C853        C854   1.413       .  A
C854       Br855   1.920       .  S
C859        C860   1.416       .  A
C859        C864   1.412       .  A
C859       Br866   1.932       .  S
C860        C861   1.415       .  A
C861        C862   1.408       .  A
C861       Br868   1.925       .  S
C862        C863   1.407       .  A
C862       Br867   1.931       .  S
C863        C864   1.414       .  A
C864       Br865   1.934       .  S
C869        C870   1.420       .  A
C869        C874   1.390       .  A
C869       Br876   1.946       .  S
C870        C871   1.428       .  A
C871        C872   1.421       .  A
C871       Br878   1.930       .  S
C872        C873   1.407       .  A
C872       Br877   1.920       .  S
C873        C874   1.393       .  A
C874       Br875   1.902       .  S
C879        C880   1.410       .  A
C879        C884   1.396       .  A
C879       Br886   1.932       .  S
C880        C881   1.422       .  A
C881        C882   1.416       .  A
C881       Br888   1.929       .  S
C882        C883   1.406       .  A
C882       Br887   1.926       .  S
C883        C884   1.403       .  A
C884       Br885   1.913       .  S
C889        C890   1.423       .  A
C889        C894   1.420       .  A
C889       Br896   1.940       .  S
C890        C891   1.427       .  A
C891        C892   1.418       .  A
C891       Br898   1.942       .  S
C892        C893   1.425       .  A
C892       Br897   1.944       .  S
C893        C894   1.426       .  A
C894       Br895   1.938       .  S
C899        C900   1.412       .  A
C899        C904   1.407       .  A
C899       Br906   1.922       .  S
C900        C901   1.420       .  A
C901        C902   1.412       .  A
C901       Br908   1.935       .  S
C902        C903   1.406       .  A
C902       Br907   1.922       .  S
C903        C904   1.410       .  A
C904       Br905   1.928       .  S
C909        C910   1.420       .  A
C909        C914   1.400       .  A
C909       Br916   1.936       .  S
C910        C911   1.418       .  A
C911        C912   1.418       .  A
C911       Br918   1.930       .  S
C912        C913   1.409       .  A
C912       Br917   1.927       .  S
C913        C914   1.406       .  A
C914       Br915   1.930       .  S
C919        C920   1.415       .  A
C919        C924   1.416       .  A
C919       Br926   1.935       .  S
C920        C921   1.424       .  A
C921        C922   1.418       .  A
C921       Br928   1.933       .  S
C922        C923   1.415       .  A
C922       Br927   1.934       .  S
C923        C924   1.424       .  A
C924       Br925   1.933       .  S
C929        C930   1.417       .  A
C929        C934   1.415       .  A
C929       Br936   1.924       .  S
C930        C931   1.410       .  A
C931        C932   1.410       .  A
C931       Br938   1.920       .  S
C932        C933   1.408       .  A
C932       Br937   1.925       .  S
C933        C934   1.402       .  A
C934       Br935   1.919       .  S
C939        C940   1.402       .  A
C939        C944   1.407       .  A
C939       Br946   1.927       .  S
C940        C941   1.411       .  A
C941        C942   1.415       .  A
C941       Br948   1.931       .  S
C942        C943   1.412       .  A
C942       Br947   1.919       .  S
C943        C944   1.413       .  A
C944       Br945   1.925       .  S
C949        C950   1.406       .  A
C949        C954   1.417       .  A
C949       Br956   1.928       .  S
C950        C951   1.411       .  A
C951        C952   1.399       .  A
C951       Br958   1.916       .  S
C952        C953   1.410       .  A
C952       Br957   1.942       .  S
C953        C954   1.419       .  A
C954       Br955   1.920       .  S
C959        C960   1.405       .  A
C959        C964   1.408       .  A
C959       Br966   1.931       .  S
C960        C961   1.407       .  A
C961        C962   1.410       .  A
C961       Br968   1.934       .  S
C962        C963   1.423       .  A
C962       Br967   1.935       .  S
C963        C964   1.414       .  A
C964       Br965   1.919       .  S
C969        C970   1.411       .  A
C969        C974   1.419       .  A
C969       Br976   1.914       .  S
C970        C971   1.408       .  A
C971        C972   1.413       .  A
C971       Br978   1.916       .  S
C972        C973   1.409       .  A
C972       Br977   1.919       .  S
C973        C974   1.409       .  A
C974       Br975   1.917       .  S
C979        C980   1.404       .  A
C979        C984   1.396       .  A
C979       Br986   1.925       .  S
C980        C981   1.414       .  A
C981        C982   1.417       .  A
C981       Br988   1.924       .  S
C982        C983   1.411       .  A
C982       Br987   1.921       .  S
C983        C984   1.408       .  A
C984       Br985   1.913       .  S
C989        C990   1.406       .  A
C989        C994   1.397       .  A
C989       Br996   1.940       .  S
C990        C991   1.411       .  A
C991        C992   1.412       .  A
C991       Br998   1.919       .  S
C992        C993   1.411       .  A
C992       Br997   1.927       .  S
C993        C994   1.415       .  A
C994       Br995   1.924       .  S
C999       C1000   1.411       .  A
C999       C1004   1.420       .  A
C999      Br1006   1.925       .  S
C1000      C1001   1.412       .  A
C1001      C1002   1.405       .  A
C1001     Br1008   1.924       .  S
C1002      C1003   1.406       .  A
C1002     Br1007   1.927       .  S
C1003      C1004   1.419       .  A
C1004     Br1005   1.928       .  S
C1009      C1010   1.411       .  A
C1009      C1014   1.410       .  A
C1009     Br1016   1.931       .  S
C1010      C1011   1.408       .  A
C1011      C1012   1.410       .  A
C1011     Br1018   1.927       .  S
C1012      C1013   1.414       .  A
C1012     Br1017   1.929       .  S
C1013      C1014   1.415       .  A
C1014     Br1015   1.933       .  S
C1019      C1020   1.408       .  A
C1019      C1024   1.408       .  A
C1019     Br1026   1.934       .  S
C1020      C1021   1.409       .  A
C1021      C1022   1.418       .  A
C1021     Br1028   1.924       .  S
C1022      C1023   1.412       .  A
C1022     Br1027   1.920       .  S
C1023      C1024   1.419       .  A
C1024     Br1025   1.932       .  S
C1029      C1030   1.415       .  A
C1029      C1034   1.417       .  A
C1029     Br1036   1.936       .  S
C1030      C1031   1.421       .  A
C1031      C1032   1.415       .  A
C1031     Br1038   1.936       .  S
C1032      C1033   1.422       .  A
C1032     Br1037   1.941       .  S
C1033      C1034   1.427       .  A
C1034     Br1035   1.940       .  S
C1039      C1040   1.411       .  A
C1039      C1044   1.411   1_565  A
C1039     Br1046   1.928       .  S
C1040      C1041   1.405       .  A
C1041      C1042   1.405   1_565  A
C1041     Br1048   1.927       .  S
C1042      C1043   1.409       .  A
C1042     Br1047   1.926       .  S
C1043      C1044   1.409       .  A
C1044     Br1045   1.931       .  S
C1049      C1050   1.412       .  A
C1049      C1054   1.418       .  A
C1049     Br1056   1.925       .  S
C1050      C1051   1.412       .  A
C1051      C1052   1.403       .  A
C1051     Br1058   1.934       .  S
C1052      C1053   1.409       .  A
C1052     Br1057   1.925       .  S
C1053      C1054   1.412       .  A
C1054     Br1055   1.927       .  S
C1059      C1060   1.428       .  A
C1059      C1064   1.425       .  A
C1059     Br1066   1.939       .  S
C1060      C1061   1.424       .  A
C1061      C1062   1.424       .  A
C1061     Br1068   1.937       .  S
C1062      C1063   1.424       .  A
C1062     Br1067   1.931       .  S
C1063      C1064   1.422       .  A
C1064     Br1065   1.937       .  S
C1069      C1070   1.410       .  A
C1069      C1074   1.405   1_455  A
C1069     Br1076   1.925       .  S
C1070      C1071   1.411       .  A
C1071      C1072   1.413   1_455  A
C1071     Br1078   1.928       .  S
C1072      C1073   1.411       .  A
C1072     Br1077   1.928       .  S
C1073      C1074   1.404       .  A
C1074     Br1075   1.925       .  S
C1079      C1080   1.413       .  A
C1079      C1084   1.415       .  A
C1079     Br1086   1.924       .  S
C1080      C1081   1.404       .  A
C1081      C1082   1.397       .  A
C1081     Br1088   1.922       .  S
C1082      C1083   1.405       .  A
C1082     Br1087   1.916       .  S
C1083      C1084   1.412       .  A
C1084     Br1085   1.928       .  S
C1089      C1090   1.422       .  A
C1089      C1094   1.402       .  A
C1089     Br1096   1.932       .  S
C1090      C1091   1.413       .  A
C1091      C1092   1.418       .  A
C1091     Br1098   1.927       .  S
C1092      C1093   1.418       .  A
C1092     Br1097   1.929       .  S
C1093      C1094   1.413       .  A
C1094     Br1095   1.947       .  S
C1099      C1100   1.409       .  A
C1099      C1104   1.416       .  A
C1099     Br1106   1.928       .  S
C1100      C1101   1.417       .  A
C1101      C1102   1.413       .  A
C1101     Br1108   1.939       .  S
C1102      C1103   1.423       .  A
C1102     Br1107   1.938       .  S
C1103      C1104   1.418       .  A
C1104     Br1105   1.925       .  S
C1109      C1110   1.413       .  A
C1109      C1114   1.418   1_565  A
C1109     Br1116   1.929       .  S
C1110      C1111   1.414       .  A
C1111      C1112   1.400   1_565  A
C1111     Br1118   1.935       .  S
C1112      C1113   1.411       .  A
C1112     Br1117   1.933       .  S
C1113      C1114   1.412       .  A
C1114     Br1115   1.921       .  S
C1119      C1120   1.417       .  A
C1119      C1124   1.409       .  A
C1119     Br1126   1.923       .  S
C1120      C1121   1.419       .  A
C1121      C1122   1.417       .  A
C1121     Br1128   1.923       .  S
C1122      C1123   1.403       .  A
C1122     Br1127   1.917       .  S
C1123      C1124   1.405       .  A
C1124     Br1125   1.926       .  S
C1129      C1130   1.403       .  A
C1129      C1134   1.406       .  A
C1129     Br1136   1.925       .  S
C1130      C1131   1.407       .  A
C1131      C1132   1.422       .  A
C1131     Br1138   1.919       .  S
C1132      C1133   1.419       .  A
C1132     Br1137   1.924       .  S
C1133      C1134   1.416       .  A
C1134     Br1135   1.919       .  S
C1139      C1140   1.413       .  A
C1139      C1144   1.420       .  A
C1139     Br1146   1.931       .  S
C1140      C1141   1.416       .  A
C1141      C1142   1.419       .  A
C1141     Br1148   1.932       .  S
C1142      C1143   1.416       .  A
C1142     Br1147   1.927       .  S
C1143      C1144   1.420       .  A
C1144     Br1145   1.929       .  S
C1149      C1150   1.408       .  A
C1149      C1154   1.412   1_455  A
C1149     Br1156   1.930       .  S
C1150      C1151   1.409       .  A
C1151      C1152   1.416   1_455  A
C1151     Br1158   1.926       .  S
C1152      C1153   1.412       .  A
C1152     Br1157   1.924       .  S
C1153      C1154   1.414       .  A
C1154     Br1155   1.926       .  S
C1159      C1160   1.418       .  A
C1159      C1164   1.414       .  A
C1159     Br1166   1.926       .  S
C1160      C1161   1.420       .  A
C1161      C1162   1.403       .  A
C1161     Br1168   1.918       .  S
C1162      C1163   1.400       .  A
C1162     Br1167   1.929       .  S
C1163      C1164   1.406       .  A
C1164     Br1165   1.921       .  S
C1169      C1170   1.409       .  A
C1169      C1174   1.407       .  A
C1169     Br1176   1.922       .  S
C1170      C1171   1.413       .  A
C1171      C1172   1.413       .  A
C1171     Br1178   1.924       .  S
C1172      C1173   1.407       .  A
C1172     Br1177   1.918       .  S
C1173      C1174   1.409       .  A
C1174     Br1175   1.910       .  S
C1179      C1180   1.411       .  A
C1179      C1184   1.401       .  A
C1179     Br1186   1.941       .  S
C1180      C1181   1.408       .  A
C1181      C1182   1.413       .  A
C1181     Br1188   1.930       .  S
C1182      C1183   1.419       .  A
C1182     Br1187   1.925       .  S
C1183      C1184   1.417       .  A
C1184     Br1185   1.931       .  S
C1189      C1190   1.427       .  A
C1189      C1194   1.424       .  A
C1189     Br1196   1.936       .  S
C1190      C1191   1.420       .  A
C1191      C1192   1.423       .  A
C1191     Br1198   1.923       .  S
C1192      C1193   1.414       .  A
C1192     Br1197   1.929       .  S
C1193      C1194   1.419       .  A
C1194     Br1195   1.934       .  S
C1199      C1200   1.406       .  A
C1199      C1204   1.410       .  A
C1199     Br1206   1.923       .  S
C1200      C1201   1.404       .  A
C1201      C1202   1.403       .  A
C1201     Br1208   1.925       .  S
C1202      C1203   1.409       .  A
C1202     Br1207   1.926       .  S
C1203      C1204   1.410       .  A
C1204     Br1205   1.925       .  S
C1209      C1210   1.423       .  A
C1209      C1214   1.414       .  A
C1209     Br1216   1.919       .  S
C1210      C1211   1.430       .  A
C1211      C1212   1.422       .  A
C1211     Br1218   1.926       .  S
C1212      C1213   1.400       .  A
C1212     Br1217   1.920       .  S
C1213      C1214   1.404       .  A
C1214     Br1215   1.923       .  S
C1219      C1220   1.403       .  A
C1219      C1224   1.415       .  A
C1219     Br1226   1.915       .  S
C1220      C1221   1.405       .  A
C1221      C1222   1.408       .  A
C1221     Br1228   1.906       .  S
C1222      C1223   1.409       .  A
C1222     Br1227   1.925       .  S
C1223      C1224   1.418       .  A
C1224     Br1225   1.927       .  S
C1229      C1230   1.400       .  A
C1229      C1234   1.404       .  A
C1229     Br1236   1.928       .  S
C1230      C1231   1.408       .  A
C1231      C1232   1.414       .  A
C1231     Br1238   1.922       .  S
C1232      C1233   1.414       .  A
C1232     Br1237   1.923       .  S
C1233      C1234   1.415       .  A
C1234     Br1235   1.919       .  S
C1239      C1240   1.407       .  A
C1239      C1244   1.398       .  A
C1239     Br1246   1.918       .  S
C1240      C1241   1.411       .  A
C1241      C1242   1.419       .  A
C1241     Br1248   1.927       .  S
C1242      C1243   1.421       .  A
C1242     Br1247   1.929       .  S
C1243      C1244   1.422       .  A
C1244     Br1245   1.948       .  S
