geometry optimzed in LAMMPS
_audit_creation_date              2020-12-01 
_audit_creation_method            'lammps2cif' 
_symmetry_space_group_name_H-M    'P1' 
_symmetry_Int_Tables_number       1 
_symmetry_cell_setting            triclinic 
loop_ 
_symmetry_equiv_pos_as_xyz 
  x,y,z 
_cell_length_a                    52.02845573 
_cell_length_b                    52.054943582354866 
_cell_length_c                    30.587446140379782 
_cell_angle_alpha                 89.89468693426349 
_cell_angle_beta                  89.11008944976712 
_cell_angle_gamma                 89.54969244723654 
loop_ 
_atom_site_label 
_atom_site_type_symbol 
_atom_site_fract_x 
_atom_site_fract_y 
_atom_site_fract_z 
_atom_site_charge 
O1          O  0.35230178  0.82992805  0.43153733    -0.80500
C2          C  0.34159085  0.87916699  0.27562145     0.98800
O3          O  0.32729758  0.86831387  0.30349020    -0.69700
O4          O  0.31746278  0.83341140  0.36191896    -0.73200
Al5        Al  0.33134112  0.86800077  0.36467678     1.49000
C6          C  0.32724687  0.81293948  0.34624402     0.94100
O7          O  0.40061991  0.82200291  0.33496510    -0.79500
O8          O  0.41531932  0.87116010  0.36661926    -0.73000
Al9        Al  0.37493943  0.82890764  0.38050996     1.90100
O10         O  0.39406359  0.85368666  0.28953678    -0.72100
O11         O  0.37972651  0.90657632  0.36840586    -0.71900
O12         O  0.36143830  0.89094801  0.28784371    -0.77600
O13         O  0.33772362  0.90512303  0.36784673    -0.75800
O14         O  0.36414175  0.85869247  0.35894520    -1.11900
O15         O  0.33295640  0.86743747  0.42662003    -0.71100
C16         C  0.34019184  0.84852180  0.44946758     0.99600
C17         C  0.40485391  0.83277253  0.29839044     0.96000
Al18       Al  0.38587186  0.87897889  0.33050266     1.55600
O19         O  0.35134852  0.80979892  0.34660063    -0.75800
C20         C  0.35832922  0.91739132  0.37453460     1.00100
C21         C  0.41725613  0.85961334  0.40312345     0.95000
O22         O  0.39964026  0.84486436  0.41598086    -0.81100
O23         O  0.35636124  0.81705108  0.94301847    -0.80500
C24         C  0.35021836  0.85628023  0.77644615     0.98800
O25         O  0.33554954  0.84564900  0.80434726    -0.69700
O26         O  0.32243957  0.81701022  0.87200714    -0.73200
Al27       Al  0.33836040  0.84964680  0.86588771     1.49000
C28         C  0.33078161  0.79509022  0.86149658     0.94100
O29         O  0.40425317  0.79791924  0.85099970    -0.79500
O30         O  0.42245812  0.84829876  0.87328471    -0.73000
Al31       Al  0.37910025  0.80993728  0.89355749     1.90100
O32         O  0.40283433  0.82708367  0.79942526    -0.72100
O33         O  0.38791770  0.88638590  0.86645366    -0.71900
O34         O  0.37142545  0.86572820  0.78809691    -0.77600
O35         O  0.34610213  0.88514140  0.86005107    -0.75800
O36         O  0.37076526  0.83839618  0.86487246    -1.11900
O37         O  0.33898676  0.85449390  0.92699750    -0.71100
C38         C  0.34549581  0.83790829  0.95499715     0.99600
C39         C  0.41121122  0.80594150  0.81357797     0.96000
Al40       Al  0.39423990  0.85559842  0.83451562     1.55600
O41         O  0.35449553  0.79022552  0.86321222    -0.75800
C42         C  0.36634136  0.89764032  0.86647832     1.00100
C43         C  0.42413339  0.83735097  0.91015715     0.95000
O44         O  0.40502338  0.82591700  0.92654244    -0.81100
O45         O  0.40610488  0.18545069  0.46785610    -0.80500
C46         C  0.35089447  0.14810494  0.32447346     0.98800
O47         O  0.37312039  0.14100016  0.33582482    -0.69700
O48         O  0.40274062  0.18068473  0.34258724    -0.73200
Al49       Al  0.39582191  0.15258092  0.37975751     1.49000
C50         C  0.41058431  0.20236511  0.35442751     0.94100
O51         O  0.35109433  0.21796712  0.40878599    -0.79500
O52         O  0.34288084  0.15323440  0.47615716    -0.73000
Al53       Al  0.37869990  0.19936085  0.43607304     1.90100
O54         O  0.32264017  0.18811573  0.42052307    -0.72100
O55         O  0.35000969  0.12093759  0.41001318    -0.71900
O56         O  0.33562978  0.15853882  0.35207402    -0.77600
O57         O  0.39189807  0.12151735  0.41278733    -0.75800
O58         O  0.37174161  0.16956573  0.40996216    -1.11900
O59         O  0.42375767  0.16146555  0.41666517    -0.71100
C60         C  0.42523182  0.17368833  0.45211302     0.99600
C61         C  0.32804716  0.21151325  0.41620109     0.96000
Al62       Al  0.34032396  0.15640132  0.41422469     1.55600
O63         O  0.40262749  0.21174083  0.39057654    -0.75800
C64         C  0.37109386  0.10916483  0.41420508     1.00100
C65         C  0.34840251  0.17124065  0.50214663     0.95000
O66         O  0.35788886  0.19206992  0.48759851    -0.81100
O67         O  0.34980980  0.17436377  0.84805316    -0.80500
C68         C  0.33665146  0.12540007  0.00441841     0.98800
O69         O  0.32313514  0.13753852  0.97720713    -0.69700
O70         O  0.31415917  0.17139972  0.91524080    -0.73200
Al71       Al  0.32850256  0.13712377  0.91566587     1.49000
C72         C  0.32313490  0.19255348  0.92820018     0.94100
O73         O  0.39647413  0.18333273  0.94377071    -0.79500
O74         O  0.41226743  0.13431090  0.91395530    -0.73000
Al75       Al  0.37162779  0.17604196  0.89866152     1.90100
O76         O  0.39007446  0.15217299  0.99047162    -0.72100
O77         O  0.37724736  0.09903727  0.91230108    -0.71900
O78         O  0.35756356  0.11475081  0.99242372    -0.77600
O79         O  0.33523390  0.10057027  0.91495806    -0.75800
O80         O  0.36098480  0.14659985  0.92130441    -1.11900
O81         O  0.33178336  0.13633648  0.85359003    -0.71100
C82         C  0.33876811  0.15535021  0.83064275     0.99600
C83         C  0.40114857  0.17268473  0.98014754     0.96000
Al84       Al  0.38254671  0.12659874  0.94992707     1.55600
O85         O  0.34709271  0.19527545  0.93146026    -0.75800
C86         C  0.35595125  0.08831537  0.90761323     1.00100
C87         C  0.41489469  0.14565358  0.87753276     0.95000
O88         O  0.39719827  0.15997136  0.86349021    -0.81100
O89         O  0.59266128  0.84853942  0.18727299    -0.80500
C90         C  0.65527056  0.88582205  0.05304033     0.98800
O91         O  0.63527538  0.89761057  0.06652030    -0.69700
O92         O  0.60303534  0.85998928  0.06307635    -0.73200
Al93       Al  0.60928111  0.88441583  0.10623563     1.49000
C94         C  0.59155457  0.83922618  0.07027082     0.94100
O95         O  0.64508991  0.81389916  0.12451447    -0.79500
O96         O  0.65877947  0.87220026  0.20416120    -0.73000
Al97       Al  0.61914378  0.83338427  0.15432814     1.90100
O98         O  0.67687617  0.83847321  0.14320042    -0.72100
O99         O  0.65599241  0.90924832  0.14334204    -0.71900
O100        O  0.66838818  0.87266890  0.07973274    -0.77600
O101        O  0.61393252  0.91125746  0.14705094    -0.75800
O102        O  0.63024849  0.86334017  0.13443818    -1.11900
O103        O  0.57817574  0.87494973  0.13768926    -0.71100
C104        C  0.57431016  0.86027626  0.17002696     0.99600
C105        C  0.66845020  0.81650560  0.13387569     0.96000
Al106      Al  0.66264560  0.87252243  0.14179920     1.55600
O107        O  0.59584183  0.82685560  0.10540011    -0.75800
C108        C  0.63546529  0.92199910  0.15044886     1.00100
C109        C  0.65033487  0.85329113  0.22626693     0.95000
O110        O  0.63870380  0.83500960  0.20760231    -0.81100
O111        O  0.64315554  0.81738030  0.56407827    -0.80500
C112        C  0.64348070  0.85565002  0.73175508     0.98800
O113        O  0.65933092  0.84523848  0.70524070    -0.69700
O114        O  0.67165760  0.81459338  0.63908114    -0.73200
Al115      Al  0.65901470  0.84890108  0.64300737     1.49000
C116        C  0.66118911  0.79332157  0.64724616     0.94100
O117        O  0.58801328  0.80379039  0.64389464    -0.79500
O118        O  0.57774560  0.85939232  0.62006961    -0.73000
Al119      Al  0.61672961  0.81354416  0.60826383     1.90100
O120        O  0.58655482  0.83219812  0.69624514    -0.72100
O121        O  0.61412777  0.89184434  0.64225070    -0.71900
O122        O  0.62212818  0.86447339  0.71868211    -0.77600
O123        O  0.65512258  0.88495963  0.64884078    -0.75800
O124        O  0.62577525  0.84094611  0.63970517    -1.11900
O125        O  0.66125744  0.85389492  0.58123366    -0.71100
C126        C  0.65554885  0.83722642  0.55304624     0.99600
C127        C  0.57865966  0.81167172  0.67962760     0.96000
Al128      Al  0.60220016  0.86031145  0.66689755     1.55600
O129        O  0.63734410  0.79055070  0.64207017    -0.75800
C130        C  0.63664678  0.90037246  0.64503447     1.00100
C131        C  0.57776420  0.84909398  0.58255221     0.95000
O132        O  0.59508105  0.83314078  0.57150618    -0.81100
O133        O  0.58905538  0.18540643  0.10779499    -0.80500
C134        C  0.64652362  0.15894528  0.25637706     0.98800
O135        O  0.62536601  0.14948636  0.24507731    -0.69700
O136        O  0.59283040  0.18716915  0.23469136    -0.73200
Al137      Al  0.60205584  0.15840643  0.20023095     1.49000
C138        C  0.58252947  0.20723811  0.21962458     0.94100
O139        O  0.63972581  0.22595088  0.16287414    -0.79500
O140        O  0.65641387  0.16008548  0.10490413    -0.73000
Al141      Al  0.61473530  0.20356732  0.13810299     1.90100
O142        O  0.67212882  0.19900908  0.15805536    -0.72100
O143        O  0.65060006  0.12929088  0.17351511    -0.71900
O144        O  0.66110583  0.16981610  0.22849734    -0.77600
O145        O  0.60876358  0.12734014  0.16934970    -0.75800
O146        O  0.62472647  0.17602991  0.16835674    -1.11900
O147        O  0.57317654  0.16409248  0.16344150    -0.71100
C148        C  0.57056404  0.17409718  0.12623546     0.99600
C149        C  0.66367506  0.22184066  0.15937441     0.96000
Al150      Al  0.65742150  0.16551055  0.16648511     1.55600
O151        O  0.58933684  0.21540213  0.18194142    -0.75800
C152        C  0.63042019  0.11622107  0.16892051     1.00100
C153        C  0.64979232  0.17674062  0.07700252     0.95000
O154        O  0.63691871  0.19648782  0.08837948    -0.81100
O155        O  0.64577093  0.17995735  0.73123504    -0.80500
C156        C  0.66051767  0.13073861  0.57645726     0.98800
O157        O  0.67356959  0.14406800  0.60246899    -0.69700
O158        O  0.68073178  0.17967666  0.66282975    -0.73200
Al159      Al  0.66985417  0.14405706  0.66435774     1.49000
C160        C  0.66959593  0.19996111  0.64974032     0.94100
O161        O  0.59728148  0.18428159  0.63918135    -0.79500
O162        O  0.58693225  0.13278792  0.67348191    -0.73000
Al163      Al  0.62320392  0.17935651  0.68245613     1.90100
O164        O  0.60358076  0.15196998  0.59474664    -0.72100
O165        O  0.62616292  0.10090680  0.67231294    -0.71900
O166        O  0.64094676  0.11863548  0.59019903    -0.77600
O167        O  0.66752644  0.10675140  0.66579229    -0.75800
O168        O  0.63623297  0.15042843  0.66063629    -1.11900
O169        O  0.66812428  0.14400981  0.72707340    -0.71100
C170        C  0.65917992  0.16265770  0.74940086     0.99600
C171        C  0.59217310  0.17264336  0.60425501     0.96000
Al172      Al  0.61613503  0.12787315  0.63494261     1.55600
O173        O  0.64538450  0.20052890  0.64748322    -0.75800
C174        C  0.64868355  0.09204410  0.67320560     1.00100
C175        C  0.58322600  0.14553619  0.70817761     0.95000
O176        O  0.59949548  0.16197541  0.71963859    -0.81100
O177        O  0.83094223  0.61730956  0.19395141    -0.80500
C178        C  0.85842945  0.67486294  0.33879147     0.98800
O179        O  0.86986576  0.65442917  0.32646520    -0.69700
O180        O  0.83499061  0.61926618  0.32097938    -0.73200
Al181      Al  0.86115277  0.63007708  0.28199972     1.49000
C182        C  0.81519091  0.60777390  0.30890056     0.94100
O183        O  0.79060832  0.66386267  0.26019770    -0.79500
O184        O  0.85227091  0.68286365  0.18857451    -0.73000
Al185      Al  0.81257168  0.64052980  0.22901692     1.90100
O186        O  0.81434831  0.69756676  0.24624743    -0.72100
O187        O  0.88557316  0.68005063  0.25360388    -0.71900
O188        O  0.84581274  0.68841040  0.31211913    -0.77600
O189        O  0.88984051  0.63851432  0.24643403    -0.75800
O190        O  0.84070767  0.65169652  0.25409656    -1.11900
O191        O  0.85583899  0.60087200  0.24372205    -0.71100
C192        C  0.84412864  0.59889281  0.20789711     0.99600
C193        C  0.79253093  0.68773397  0.25312602     0.96000
Al194      Al  0.84886302  0.68474837  0.25057166     1.55600
O195        O  0.80492495  0.61371107  0.27272514    -0.75800
C196        C  0.89963931  0.66054967  0.24649475     1.00100
C197        C  0.83456138  0.67533263  0.16379854     0.95000
O198        O  0.81534835  0.66338826  0.17957017    -0.81100
O199        O  0.82869175  0.63666759  0.83215482    -0.80500
C200        C  0.85503632  0.64954088  0.65573583     0.98800
O201        O  0.86084419  0.66476848  0.68618018    -0.69700
O202        O  0.82066765  0.67754975  0.73267150    -0.73200
Al203      Al  0.85347404  0.66444426  0.74774174     1.49000
C204        C  0.79833989  0.67121598  0.74486031     0.94100
O205        O  0.79777569  0.60605065  0.73637896    -0.79500
O206        O  0.86870260  0.58856885  0.76490131    -0.73000
Al207      Al  0.81567129  0.62240377  0.78164819     1.90100
O208        O  0.83048686  0.58668922  0.70535177    -0.72100
O209        O  0.89188359  0.62357553  0.71636141    -0.71900
O210        O  0.85036192  0.62619505  0.66376554    -0.77600
O211        O  0.88829907  0.65541893  0.76212553    -0.75800
O212        O  0.84258083  0.63182617  0.74853110    -1.11900
O213        O  0.84811697  0.67122689  0.80905855    -0.71100
C214        C  0.84000131  0.65726490  0.83991700     0.99600
C215        C  0.80669064  0.58878832  0.71194917     0.96000
Al216      Al  0.85891287  0.60839884  0.71545338     1.55600
O217        O  0.79491934  0.65178858  0.76888831    -0.75800
C218        C  0.90224368  0.63992698  0.74044172     1.00100
C219        C  0.85371050  0.58116614  0.79528023     0.95000
O220        O  0.83160256  0.59120986  0.80032176    -0.81100
O221        O  0.15991794  0.61058181  0.29681079    -0.80500
C222        C  0.13197526  0.67506509  0.15753354     0.98800
O223        O  0.12079361  0.65462503  0.16908664    -0.69700
O224        O  0.15530114  0.61848413  0.17119332    -0.73200
Al225      Al  0.12955902  0.62895520  0.21101473     1.49000
C226        C  0.17482615  0.60550905  0.18126006     0.94100
O227        O  0.20192087  0.65865291  0.23597318    -0.79500
O228        O  0.14110696  0.67868821  0.30878977    -0.73000
Al229      Al  0.17891385  0.63501239  0.26442397     1.90100
O230        O  0.17850977  0.69299971  0.24951493    -0.72100
O231        O  0.10669718  0.67875074  0.24500013    -0.71900
O232        O  0.14560511  0.68730394  0.18432527    -0.77600
O233        O  0.10126600  0.63720023  0.24784305    -0.75800
O234        O  0.15088498  0.64855037  0.24053234    -1.11900
O235        O  0.13362437  0.59887429  0.24578059    -0.71100
C236        C  0.14408272  0.59478732  0.28199968     0.99600
C237        C  0.20014643  0.68271060  0.24158980     0.96000
Al238      Al  0.14363215  0.68182294  0.24646955     1.55600
O239        O  0.18570622  0.60967799  0.21755741    -0.75800
C240        C  0.09217552  0.65959731  0.25023651     1.00100
C241        C  0.15865937  0.66973473  0.33285849     0.95000
O242        O  0.17688541  0.65624181  0.31658907    -0.81100
O243        O  0.18155742  0.64372839  0.67396169    -0.80500
C244        C  0.13676035  0.65023366  0.83734925     0.98800
O245        O  0.14651384  0.66508176  0.80902581    -0.69700
O246        O  0.17842979  0.67714849  0.74501446    -0.73200
Al247      Al  0.14541558  0.66125536  0.74733712     1.49000
C248        C  0.20043961  0.66873502  0.75466963     0.94100
O249        O  0.19777721  0.59551393  0.76283443    -0.79500
O250        O  0.14693680  0.57767886  0.73933404    -0.73000
Al251      Al  0.18637812  0.62073202  0.72212237     1.90100
O252        O  0.16844728  0.59573442  0.81452302    -0.72100
O253        O  0.10847423  0.61131710  0.74967748    -0.71900
O254        O  0.12982782  0.62783970  0.82681088    -0.77600
O255        O  0.10972186  0.65317869  0.75000527    -0.75800
O256        O  0.15706131  0.62890464  0.74968989    -1.11900
O257        O  0.14333601  0.66068397  0.68494879    -0.71100
C258        C  0.16206979  0.65545780  0.65952537     0.99600
C259        C  0.18993695  0.58805401  0.79981077     0.96000
Al260      Al  0.13976503  0.60521895  0.77983333     1.55600
O261        O  0.20509226  0.64498101  0.75393833    -0.75800
C262        C  0.09703623  0.63273397  0.74735552     1.00100
C263        C  0.15892671  0.57622419  0.70306365     0.95000
O264        O  0.17106517  0.59522065  0.68795460    -0.81100
O265        O  0.80005457  0.36961162  0.45411639    -0.80500
C266        C  0.84719483  0.37238809  0.61482300     0.98800
O267        O  0.83709122  0.35608946  0.59001687    -0.69700
O268        O  0.80580694  0.33885478  0.53100401    -0.73200
Al269      Al  0.83751118  0.35678266  0.52812242     1.49000
C270        C  0.78374320  0.34574930  0.54395803     0.94100
O271        O  0.78209212  0.41993758  0.54280516    -0.79500
O272        O  0.83215468  0.43939646  0.50766731    -0.73000
Al273      Al  0.79382548  0.39388715  0.50197968     1.90100
O274        O  0.81426891  0.42345926  0.58766480    -0.72100
O275        O  0.87185543  0.40784391  0.51590547    -0.71900
O276        O  0.85417513  0.39398482  0.59954354    -0.77600
O277        O  0.87278217  0.36634175  0.52573268    -0.75800
O278        O  0.82433192  0.38846531  0.52659973    -1.11900
O279        O  0.83895052  0.35494390  0.46667204    -0.71100
C280        C  0.82071345  0.35875150  0.44064221     0.99600
C281        C  0.79167893  0.42917196  0.57707837     0.96000
Al282      Al  0.84169270  0.41399837  0.55047038     1.55600
O283        O  0.77692098  0.36893619  0.53931715    -0.75800
C284        C  0.88392415  0.38679301  0.51467625     1.00100
C285        C  0.81896350  0.43947742  0.47323744     0.95000
O286        O  0.80623617  0.41985195  0.46299088    -0.81100
O287        O  0.81996179  0.36630215  0.96078423    -0.80500
C288        C  0.86316619  0.35281680  0.12080602     0.98800
O289        O  0.85310373  0.33926605  0.09153830    -0.69700
O290        O  0.81984512  0.33270180  0.02953269    -0.73200
Al291      Al  0.85511523  0.34440577  0.02990063     1.49000
C292        C  0.79966370  0.34341572  0.04500664     0.94100
O293        O  0.81231353  0.41697581  0.05120404    -0.79500
O294        O  0.86320858  0.42706562  0.02651408    -0.73000
Al295      Al  0.81908430  0.38966764  0.00996624     1.90100
O296        O  0.83944327  0.40847749  0.10269893    -0.72100
O297        O  0.89637277  0.39044943  0.03242704    -0.71900
O298        O  0.87456575  0.37340963  0.11048931    -0.77600
O299        O  0.89221423  0.34866591  0.03018052    -0.75800
O300        O  0.84718561  0.37745120  0.03513226    -1.11900
O301        O  0.85729241  0.34716635  0.96733447    -0.71100
C302        C  0.83925928  0.35512010  0.94332175     0.99600
C303        C  0.82184240  0.42233405  0.08777202     0.96000
Al304      Al  0.86686702  0.39813431  0.06566980     1.55600
O305        O  0.79753868  0.36767515  0.04437823    -0.75800
C306        C  0.90581696  0.36858874  0.02575693     1.00100
C307        C  0.85444271  0.42866894  0.98812894     0.95000
O308        O  0.83857886  0.41233070  0.97453707    -0.81100
O309        O  0.17824947  0.36646061  0.05200028    -0.80500
C310        C  0.13800758  0.36531540  0.88547414     0.98800
O311        O  0.14873980  0.34962367  0.91130921    -0.69700
O312        O  0.17708387  0.33397086  0.97835919    -0.73200
Al313      Al  0.14512337  0.35155723  0.97377916     1.49000
C314        C  0.20015847  0.34064561  0.97382840     0.94100
O315        O  0.19950973  0.41455750  0.96345141    -0.79500
O316        O  0.14899164  0.43521954  0.98845999    -0.73000
Al317      Al  0.18628723  0.38965304  0.00459619     1.90100
O318        O  0.17006847  0.41654963  0.91302204    -0.72100
O319        O  0.10936748  0.40250024  0.97950227    -0.71900
O320        O  0.13048254  0.38707391  0.89950873    -0.77600
O321        O  0.10988019  0.36097508  0.96971240    -0.75800
O322        O  0.15757901  0.38329735  0.97541659    -1.11900
O323        O  0.14025669  0.35108458  0.03524089    -0.71100
C324        C  0.15743403  0.35551728  0.06291435     0.99600
C325        C  0.19181665  0.42285008  0.92694261     0.96000
Al326      Al  0.14101077  0.40823699  0.94767341     1.55600
O327        O  0.20592342  0.36411795  0.97381300    -0.75800
C328        C  0.09765418  0.38127389  0.97891357     1.00100
C329        C  0.16032947  0.43604373  0.02471674     0.95000
O330        O  0.17102330  0.41615827  0.03971443    -0.81100
O331        O  0.14706506  0.41034045  0.42524033    -0.80500
C332        C  0.11371289  0.34828688  0.56266735     0.98800
O333        O  0.10181444  0.36851094  0.55139856    -0.69700
O334        O  0.13870316  0.40151846  0.55063462    -0.73200
Al335      Al  0.11329726  0.39414804  0.51010505     1.49000
C336        C  0.15999089  0.41136828  0.54096566     0.94100
O337        O  0.18282571  0.35778862  0.48574293    -0.79500
O338        O  0.12245084  0.34512293  0.41044770    -0.73000
Al339      Al  0.16301800  0.38376835  0.45719204     1.90100
O340        O  0.15776978  0.32624136  0.46762641    -0.72100
O341        O  0.08682651  0.34738322  0.47548252    -0.71900
O342        O  0.12554316  0.33478898  0.53426009    -0.77600
O343        O  0.08573140  0.38926243  0.47217170    -0.75800
O344        O  0.13351796  0.37300739  0.47987063    -1.11900
O345        O  0.12055168  0.42417718  0.47624502    -0.71100
C346        C  0.13189599  0.42729158  0.43991439     0.99600
C347        C  0.17979780  0.33422653  0.47755821     0.96000
Al348      Al  0.12379401  0.34072784  0.47254210     1.55600
O349        O  0.17080264  0.40686690  0.50436065    -0.75800
C350        C  0.07438449  0.36816915  0.47013936     1.00100
C351        C  0.14135368  0.35302995  0.38745549     0.95000
O352        O  0.16034518  0.36376270  0.40515596    -0.81100
C353        C  0.13500938  0.32818617  0.77735682     0.13900
C354        C  0.12495441  0.34696582  0.74910832     0.00900
C355        C  0.11917355  0.37145758  0.76594107     0.15900
C356        C  0.12346622  0.37723973  0.80979550     0.25300
C357        C  0.13361478  0.35859389  0.83855421    -0.41100
C358        C  0.13921989  0.33386580  0.82166818     0.32300
C359        C  0.12091831  0.34179610  0.70177468     0.01000
F360        F  0.10982484  0.39019251  0.73946107    -0.13400
F361        F  0.14855687  0.31504846  0.84792528    -0.13900
C362        C  0.09678744  0.34674309  0.68327721     0.15900
C363        C  0.09401414  0.34740192  0.63783243     0.25300
C364        C  0.11508903  0.34206234  0.60986438    -0.41000
C365        C  0.13881522  0.33523969  0.62835616     0.32200
C366        C  0.14173843  0.33524308  0.67392802     0.14000
F367        F  0.07611546  0.35214598  0.70939898    -0.13400
F368        F  0.15984314  0.33120393  0.60232435    -0.13900
F369        F  0.07098195  0.35447276  0.62112333    -0.16200
F370        F  0.16541110  0.33092523  0.69062301    -0.14700
F371        F  0.14030142  0.30419417  0.76218801    -0.14700
F372        F  0.11788573  0.40143538  0.82368055    -0.16100
C373        C  0.12969138  0.32799525  0.27271486     0.13900
C374        C  0.14581330  0.34409663  0.24789157     0.00900
C375        C  0.15964192  0.36338122  0.26869747     0.15900
C376        C  0.15771499  0.36644181  0.31382848     0.25300
C377        C  0.14208308  0.34998992  0.33933515    -0.41100
C378        C  0.12788716  0.33083381  0.31826833     0.32300
C379        C  0.14687452  0.34266123  0.19982606     0.01000
F380        F  0.17444582  0.37984886  0.24496511    -0.13400
F381        F  0.11249997  0.31476879  0.34164831    -0.13900
C382        C  0.12761733  0.35485793  0.17562754     0.15900
C383        C  0.13056516  0.35786441  0.13045652     0.25300
C384        C  0.15291857  0.34886289  0.10903049    -0.41000
C385        C  0.17185480  0.33588076  0.13298981     0.32200
C386        C  0.16880433  0.33272083  0.17822741     0.14000
F387        F  0.10681855  0.36541932  0.19628333    -0.13400
F388        F  0.19353500  0.32692483  0.11272122    -0.13900
F389        F  0.11259425  0.37141437  0.10816890    -0.16200
F390        F  0.18769581  0.32102168  0.20127003    -0.14700
F391        F  0.11560450  0.30972162  0.25275086    -0.14700
F392        F  0.17068230  0.38607718  0.33231226    -0.16100
C393        C  0.97679171  0.35834157  0.04024858     0.13900
C394        C  0.98713450  0.37205208  0.00439059     0.00900
C395        C  0.97028156  0.38281008  0.97367181     0.15900
C396        C  0.94364387  0.38040895  0.97930344     0.25300
C397        C  0.93344809  0.36695851  0.01540333    -0.41100
C398        C  0.95016780  0.35582723  0.04564940     0.32300
C399        C  0.01544175  0.37478684  0.99885858     0.01000
F400        F  0.97961580  0.39562606  0.93820362    -0.13400
F401        F  0.94063620  0.34402914  0.08199456    -0.13900
C402        C  0.03122977  0.35283308  0.99751837     0.15900
C403        C  0.05782469  0.35505019  0.99209617     0.25300
C404        C  0.06943108  0.37942754  0.98742458    -0.41000
C405        C  0.05356212  0.40145211  0.98905792     0.32200
C406        C  0.02685889  0.39914610  0.99485332     0.14000
F407        F  0.02079218  0.32903971  0.00049117    -0.13400
F408        F  0.06375296  0.42523251  0.98430632    -0.13900
F409        F  0.07209389  0.33308643  0.99114930    -0.16200
F410        F  0.01217103  0.42078172  0.99709044    -0.14700
F411        F  0.99244676  0.34830953  0.07111023    -0.14700
F412        F  0.92773819  0.39149535  0.94981076    -0.16100
C413        C  0.00521254  0.35763041  0.50185384     0.13900
C414        C  0.99267341  0.37678117  0.47747868     0.00900
C415        C  0.00699133  0.39164409  0.44761788     0.15900
C416        C  0.03356020  0.38770127  0.44288398     0.25300
C417        C  0.04611601  0.36864239  0.46763311    -0.41100
C418        C  0.03162071  0.35337843  0.49659304     0.32300
C419        C  0.96458183  0.38066682  0.48309159     0.01000
F420        F  0.99525357  0.40999458  0.42323469    -0.13400
F421        F  0.04330912  0.33558570  0.52219032    -0.13900
C422        C  0.95435716  0.40400132  0.49903594     0.15900
C423        C  0.92790529  0.40649937  0.50789396     0.25300
C424        C  0.91139840  0.38556421  0.50136377    -0.41000
C425        C  0.92173894  0.36248333  0.48444372     0.32200
C426        C  0.94796556  0.36018071  0.47508290     0.14000
F427        F  0.97014803  0.42386934  0.50817250    -0.13400
F428        F  0.90650478  0.34187971  0.47742688    -0.13900
F429        F  0.91874594  0.42880997  0.52528200    -0.16200
F430        F  0.95728512  0.33766870  0.45874556    -0.14700
F431        F  0.99199635  0.34376509  0.53224884    -0.14700
F432        F  0.04712358  0.40274171  0.41461898    -0.16100
C433        C  0.84310762  0.33741786  0.72452346     0.13900
C434        C  0.84891510  0.35712892  0.75387491     0.00900
C435        C  0.85659705  0.38108630  0.73730831     0.15900
C436        C  0.85737526  0.38569857  0.69211232     0.25300
C437        C  0.85004894  0.36645894  0.66238899    -0.41100
C438        C  0.84358984  0.34198151  0.67927281     0.32300
C439        C  0.84568599  0.35339983  0.80182593     0.01000
F440        F  0.86256246  0.40034991  0.76514816    -0.13400
F441        F  0.83714025  0.32250645  0.65218056    -0.13900
C442        C  0.86653968  0.34589684  0.82752834     0.15900
C443        C  0.86420533  0.34531648  0.87335405     0.25300
C444        C  0.84085001  0.35231515  0.89452929    -0.41000
C445        C  0.81959607  0.35866475  0.86816191     0.32200
C446        C  0.82202977  0.35907792  0.82238778     0.14000
F447        F  0.88942207  0.33977918  0.80817136    -0.13400
F448        F  0.79649579  0.36506501  0.88650200    -0.13900
F449        F  0.88521903  0.33896395  0.89689791    -0.16200
F450        F  0.80138957  0.36567703  0.79800665    -0.14700
F451        F  0.83635374  0.31387848  0.73978204    -0.14700
F452        F  0.86441158  0.40935904  0.67776469    -0.16100
C453        C  0.83308964  0.32722315  0.22614132     0.13900
C454        C  0.84528118  0.34235593  0.25753468     0.00900
C455        C  0.86589030  0.35795536  0.24431255     0.15900
C456        C  0.87312643  0.35977426  0.20015716     0.25300
C457        C  0.85979802  0.34605572  0.16798703    -0.41100
C458        C  0.84043004  0.32883276  0.18181059     0.32300
C459        C  0.83640960  0.34276888  0.30399641     0.01000
F460        F  0.87832342  0.37240923  0.27411034    -0.13400
F461        F  0.82766005  0.31445929  0.15231113    -0.13900
C462        C  0.85200071  0.33229862  0.33656695     0.15900
C463        C  0.84601168  0.33620547  0.38084985     0.25300
C464        C  0.82433154  0.35106877  0.39378456    -0.41000
C465        C  0.80786396  0.36030149  0.36090367     0.32200
C466        C  0.81389327  0.35617228  0.31646131     0.14000
F467        F  0.87362334  0.31893654  0.32538017    -0.13400
F468        F  0.78670435  0.37455320  0.37144354    -0.13900
F469        F  0.86204285  0.32599424  0.41099344    -0.16200
F470        F  0.79856698  0.36663122  0.28550393    -0.14700
F471        F  0.81371001  0.31129326  0.23827054    -0.14700
F472        F  0.89268832  0.37570012  0.18886420    -0.16100
C473        C  0.22880162  0.52752730  0.81695935     0.13900
C474        C  0.21885852  0.51942229  0.85749826     0.00900
C475        C  0.20431924  0.53680600  0.88310087     0.15900
C476        C  0.19741886  0.56086791  0.86630919     0.25300
C477        C  0.20440552  0.56763848  0.82320806    -0.41100
C478        C  0.22174553  0.55148106  0.79989233     0.32300
C479        C  0.21905062  0.49182596  0.86933676     0.01000
F480        F  0.19457315  0.52949246  0.92257262    -0.13400
F481        F  0.22999961  0.55761581  0.75888068    -0.13900
C482        C  0.22967744  0.48328886  0.90871802     0.15900
C483        C  0.22369423  0.45886760  0.92517296     0.25300
C484        C  0.20636164  0.44299583  0.90288001    -0.41000
C485        C  0.19852643  0.45040558  0.86076788     0.32200
C486        C  0.20474226  0.47463187  0.84426009     0.14000
F487        F  0.24433949  0.49929596  0.93267004    -0.13400
F488        F  0.18295735  0.43513439  0.83703639    -0.13900
F489        F  0.23274645  0.45200385  0.96494157    -0.16200
F490        F  0.19456826  0.48223238  0.80565718    -0.14700
F491        F  0.24365244  0.51135364  0.79240014    -0.14700
F492        F  0.18235400  0.57673903  0.89106581    -0.16100
C493        C  0.17932424  0.47698424  0.57459215     0.13900
C494        C  0.17032864  0.47757965  0.61824743     0.00900
C495        C  0.16296005  0.45446219  0.63858419     0.15900
C496        C  0.16224134  0.43170639  0.61446706     0.25300
C497        C  0.16952771  0.43159029  0.56993757    -0.41100
C498        C  0.17947759  0.45408834  0.55099650     0.32300
C499        C  0.16736312  0.50251209  0.64130832     0.01000
F500        F  0.15533434  0.45412312  0.68124407    -0.13400
F501        F  0.18646573  0.45473903  0.50804090    -0.13900
C502        C  0.14388728  0.50945055  0.66191292     0.15900
C503        C  0.14099314  0.53343412  0.68212025     0.25300
C504        C  0.16102139  0.55135364  0.68014625    -0.41000
C505        C  0.18442945  0.54439511  0.65946013     0.32200
C506        C  0.18772083  0.52005474  0.64115990     0.14000
F507        F  0.12357725  0.49322689  0.66186824    -0.13400
F508        F  0.20465699  0.56072892  0.65864618    -0.13900
F509        F  0.11854121  0.53923233  0.70320652    -0.16200
F510        F  0.21107598  0.51339275  0.62405065    -0.14700
F511        F  0.18585045  0.49898396  0.55339409    -0.14700
F512        F  0.15272913  0.41018116  0.63377276    -0.16100
C513        C  0.13486880  0.69235607  0.93935330     0.13900
C514        C  0.13099407  0.67398684  0.97239753     0.00900
C515        C  0.12819330  0.64806591  0.96078197     0.15900
C516        C  0.12941327  0.64052257  0.91703091     0.25300
C517        C  0.13380575  0.65873885  0.88361335    -0.41100
C518        C  0.13617744  0.68484972  0.89530745     0.32300
C519        C  0.12936661  0.68128750  0.01921566     0.01000
F520        F  0.12469652  0.62984595  0.99212504    -0.13400
F521        F  0.13935208  0.70322109  0.86417624    -0.13900
C522        C  0.10700031  0.67555194  0.04337953     0.15900
C523        C  0.10701752  0.67644678  0.08894838     0.25300
C524        C  0.12951046  0.68294767  0.11131304    -0.41000
C525        C  0.15102692  0.69145563  0.08711641     0.32200
C526        C  0.15098107  0.69055623  0.04120838     0.14000
F527        F  0.08565107  0.66729770  0.02280548    -0.13400
F528        F  0.17291694  0.69804916  0.10776810    -0.13900
F529        F  0.08554626  0.66909885  0.11135268    -0.16200
F530        F  0.17276351  0.69652274  0.01853323    -0.14700
F531        F  0.13694017  0.71759438  0.94969195    -0.14700
F532        F  0.12674203  0.61519509  0.90770533    -0.16100
C533        C  0.13606918  0.67249199  0.45162057     0.13900
C534        C  0.15903995  0.67820897  0.47321947     0.00900
C535        C  0.18109381  0.68391913  0.44777210     0.15900
C536        C  0.18069395  0.68197252  0.40204884     0.25300
C537        C  0.15812955  0.67480888  0.38065854    -0.41100
C538        C  0.13563012  0.67076378  0.40580157     0.32300
C539        C  0.16084538  0.67463630  0.52159976     0.01000
F540        F  0.20329455  0.69068407  0.46732795    -0.13400
F541        F  0.11371554  0.66312745  0.38630643    -0.13900
C542        C  0.17918305  0.65739189  0.53829142     0.15900
C543        C  0.17968527  0.65156959  0.58285226     0.25300
C544        C  0.16173962  0.66276460  0.61235149    -0.41000
C545        C  0.14374125  0.68058946  0.59593540     0.32200
C546        C  0.14335695  0.68650908  0.55104507     0.14000
F547        F  0.19611339  0.64517729  0.51107400    -0.13400
F548        F  0.12656376  0.69239753  0.62323626    -0.13900
F549        F  0.19742248  0.63420224  0.59666363    -0.16200
F550        F  0.12592146  0.70390676  0.53638510    -0.14700
F551        F  0.11446643  0.66675912  0.47500916    -0.14700
F552        F  0.20251732  0.68673081  0.37859452    -0.16100
C553        C  0.11908559  0.49730415  0.41453258     0.13900
C554        C  0.12711805  0.49863592  0.37065034     0.00900
C555        C  0.13440239  0.47617140  0.34839949     0.15900
C556        C  0.13494088  0.45270645  0.37045333     0.25300
C557        C  0.12825664  0.45142238  0.41523458    -0.41100
C558        C  0.11949971  0.47385689  0.43669991     0.32300
C559        C  0.13021462  0.52371625  0.34926136     0.01000
F560        F  0.14217719  0.47718929  0.30584297    -0.13400
F561        F  0.11247422  0.47343550  0.47963453    -0.13900
C562        C  0.14944866  0.54029179  0.36341057     0.15900
C563        C  0.15354385  0.56365799  0.34227514     0.25300
C564        C  0.13847902  0.57081354  0.30626238    -0.41000
C565        C  0.11890314  0.55412533  0.29250336     0.32200
C566        C  0.11490686  0.53071752  0.31386241     0.14000
F567        F  0.16489556  0.53337221  0.39689666    -0.13400
F568        F  0.10369436  0.56025553  0.25827707    -0.13900
F569        F  0.17281629  0.57882676  0.35642984    -0.16200
F570        F  0.09615993  0.51480292  0.29998976    -0.14700
F571        F  0.11152871  0.51890578  0.43616565    -0.14700
F572        F  0.14242504  0.43137166  0.34807605    -0.16100
C573        C  0.17870320  0.50559674  0.04214544     0.13900
C574        C  0.17519654  0.50897458  0.08759844     0.00900
C575        C  0.16624749  0.48779586  0.11244576     0.15900
C576        C  0.16109924  0.46406153  0.09233281     0.25300
C577        C  0.16387248  0.46120877  0.04680502    -0.41100
C578        C  0.17262120  0.48227601  0.02202267     0.32300
C579        C  0.17944660  0.53483863  0.10834257     0.01000
F580        F  0.16179890  0.49020594  0.15609125    -0.13400
F581        F  0.17616177  0.47999136  0.97812843    -0.13900
C582        C  0.16841818  0.55717693  0.09015953     0.15900
C583        C  0.17010426  0.58094730  0.11128613     0.25300
C584        C  0.18174605  0.58308304  0.15252701    -0.41000
C585        C  0.19459261  0.56127062  0.16912659     0.32200
C586        C  0.19364924  0.53750672  0.14705775     0.14000
F587        F  0.15425763  0.55584386  0.05333534    -0.13400
F588        F  0.20673344  0.56244884  0.20802394    -0.13900
F589        F  0.15858579  0.60164182  0.09253638    -0.16200
F590        F  0.20618038  0.51693642  0.16414138    -0.14700
F591        F  0.18855524  0.52478033  0.01706169    -0.14700
F592        F  0.15271897  0.44406994  0.11715857    -0.16100
C593        C  0.88450987  0.52005626  0.83929270     0.13900
C594        C  0.87046695  0.51681421  0.87856877     0.00900
C595        C  0.85254420  0.53563442  0.89150517     0.15900
C596        C  0.84785370  0.55685093  0.86509431     0.25300
C597        C  0.86125602  0.56002688  0.82507797    -0.41100
C598        C  0.88027238  0.54178728  0.81303859     0.32300
C599        C  0.87194241  0.49290467  0.90454484     0.01000
F600        F  0.83831062  0.53265699  0.92874800    -0.13400
F601        F  0.89391515  0.54431753  0.77507961    -0.13900
C602        C  0.87764869  0.49395973  0.94926005     0.15900
C603        C  0.87273979  0.47286653  0.97646911     0.25300
C604        C  0.86219305  0.45022953  0.95917468    -0.41000
C605        C  0.85814349  0.44875652  0.91378053     0.32200
C606        C  0.86287056  0.46993206  0.88682149     0.14000
F607        F  0.88665988  0.51599508  0.96691690    -0.13400
F608        F  0.84886595  0.42704099  0.89546657    -0.13900
F609        F  0.87693710  0.47523066  0.01999033    -0.16200
F610        F  0.85684664  0.46857394  0.84386029    -0.14700
F611        F  0.90184743  0.50196048  0.82595726    -0.14700
F612        F  0.82944026  0.57384159  0.87836754    -0.16100
C613        C  0.97107621  0.65260203  0.77636723     0.13900
C614        C  0.98539796  0.63900835  0.74437908     0.00900
C615        C  0.97230304  0.62650188  0.71094305     0.15900
C616        C  0.94550687  0.62689159  0.70992957     0.25300
C617        C  0.93089354  0.64043210  0.74187003    -0.41100
C618        C  0.94407473  0.65353828  0.77491176     0.32300
C619        C  0.01395227  0.63748295  0.74556926     0.01000
F620        F  0.98555189  0.61395060  0.67876635    -0.13400
F621        F  0.93091198  0.66664530  0.80650231    -0.13900
C622        C  0.02653205  0.61346286  0.74615306     0.15900
C623        C  0.05342077  0.61181474  0.74538862     0.25300
C624        C  0.06845827  0.63423538  0.74420019    -0.41000
C625        C  0.05569109  0.65832853  0.74326786     0.32200
C626        C  0.02879553  0.65987133  0.74402513     0.14000
F627        F  0.01269272  0.59147313  0.74813214    -0.13400
F628        F  0.06912421  0.68058293  0.74169730    -0.13900
F629        F  0.06461619  0.58818081  0.74644314    -0.16200
F630        F  0.01722730  0.68331708  0.74225116    -0.14700
F631        F  0.98321113  0.66431872  0.80977539    -0.14700
F632        F  0.93398294  0.61391523  0.67721710    -0.16100
C633        C  0.76534944  0.53040733  0.70321328     0.13900
C634        C  0.76986449  0.52374044  0.65908670     0.00900
C635        C  0.78196301  0.54171385  0.63118930     0.15900
C636        C  0.79168692  0.56447397  0.64799212     0.25300
C637        C  0.78974910  0.56961455  0.69278424    -0.41100
C638        C  0.77552980  0.55310130  0.72008468     0.32300
C639        C  0.76732927  0.49671515  0.64406996     0.01000
F640        F  0.78696828  0.53610942  0.58856371    -0.13400
F641        F  0.77388701  0.55753749  0.76379375    -0.13900
C642        C  0.75690153  0.49114436  0.60298291     0.15900
C643        C  0.76256286  0.46772303  0.58226281     0.25300
C644        C  0.77806011  0.44920339  0.60304882    -0.41000
C645        C  0.78537231  0.45348166  0.64651992     0.32200
C646        C  0.78035220  0.47706890  0.66663780     0.14000
F647        F  0.74321291  0.50930285  0.58124765    -0.13400
F648        F  0.79964171  0.43572107  0.66814276    -0.13900
F649        F  0.75543658  0.46454876  0.54011429    -0.16200
F650        F  0.79087555  0.48157407  0.70622252    -0.14700
F651        F  0.75294673  0.51397583  0.73069875    -0.14700
F652        F  0.80476185  0.58064007  0.62104321    -0.16100
C653        C  0.83267525  0.50660907  0.42849856     0.13900
C654        C  0.81029308  0.51212967  0.40474493     0.00900
C655        C  0.79136117  0.49303305  0.40211116     0.15900
C656        C  0.79475834  0.46900694  0.42240392     0.25300
C657        C  0.81698788  0.46359847  0.44674991    -0.41100
C658        C  0.83594704  0.48272833  0.44930513     0.32300
C659        C  0.80729088  0.53728281  0.38120376     0.01000
F660        F  0.76912767  0.49793246  0.38088453    -0.13400
F661        F  0.85781704  0.47830971  0.47188047    -0.13900
C662        C  0.80396033  0.53782695  0.33558440     0.15900
C663        C  0.80371787  0.56122628  0.31254846     0.25300
C664        C  0.80720545  0.58468503  0.33444370    -0.41000
C665        C  0.80947001  0.58424221  0.38032601     0.32200
C666        C  0.80921594  0.56086129  0.40347615     0.14000
F667        F  0.80282246  0.51551822  0.31280333    -0.13400
F668        F  0.81316460  0.60643293  0.40257504    -0.13900
F669        F  0.80268277  0.56070151  0.26823585    -0.16200
F670        F  0.81160417  0.56123996  0.44761393    -0.14700
F671        F  0.85163406  0.52427831  0.43117481    -0.14700
F672        F  0.77572516  0.45141522  0.41960664    -0.16100
C673        C  0.96701167  0.68636170  0.25905903     0.13900
C674        C  0.98194471  0.66519713  0.24548559     0.00900
C675        C  0.96982409  0.64354939  0.22824835     0.15900
C676        C  0.94305268  0.64248185  0.22667457     0.25300
C677        C  0.92787570  0.66320467  0.24206428    -0.41100
C678        C  0.94019803  0.68544462  0.25731144     0.32300
C679        C  0.01014991  0.66532575  0.25010865     0.01000
F680        F  0.98399453  0.62332631  0.21314933    -0.13400
F681        F  0.92639147  0.70583786  0.27270906    -0.13900
C682        C  0.02225044  0.64695037  0.27668334     0.15900
C683        C  0.04906910  0.64567699  0.27838165     0.25300
C684        C  0.06412764  0.66316666  0.25425231    -0.41000
C685        C  0.05192040  0.68224298  0.22918858     0.32200
C686        C  0.02513632  0.68319316  0.22691514     0.14000
F687        F  0.00802221  0.63011580  0.30066394    -0.13400
F688        F  0.06594539  0.69886383  0.20445074    -0.13900
F689        F  0.06032224  0.62719101  0.30314930    -0.16200
F690        F  0.01385943  0.70077453  0.20040217    -0.14700
F691        F  0.97837614  0.70750115  0.27578497    -0.14700
F692        F  0.93202941  0.62094168  0.21074475    -0.16100
C693        C  0.87866778  0.67402574  0.45587533     0.13900
C694        C  0.85624902  0.68291614  0.47693785     0.00900
C695        C  0.83612795  0.69325531  0.45236489     0.15900
C696        C  0.83759781  0.69273892  0.40664663     0.25300
C697        C  0.85926124  0.68177400  0.38540229    -0.41100
C698        C  0.88025275  0.67356503  0.41043025     0.32300
C699        C  0.85255275  0.67687739  0.52341283     0.01000
F700        F  0.81443470  0.70214858  0.47263190    -0.13400
F701        F  0.90175256  0.66366242  0.39091971    -0.13900
C702        C  0.86400510  0.69187742  0.55550895     0.15900
C703        C  0.86464841  0.68320696  0.59876351     0.25300
C704        C  0.85383479  0.65926790  0.61031915    -0.41000
C705        C  0.84183031  0.64467085  0.57783339     0.32200
C706        C  0.84110243  0.65350087  0.53486381     0.14000
F707        F  0.87542515  0.71439717  0.54451508    -0.13400
F708        F  0.83125719  0.62153927  0.58722519    -0.13900
F709        F  0.87695918  0.69768847  0.62867369    -0.16200
F710        F  0.83030906  0.63859814  0.50380372    -0.14700
F711        F  0.89818359  0.66383300  0.47944423    -0.14700
F712        F  0.81691660  0.70064656  0.38350962    -0.16100
C713        C  0.86191034  0.68652003  0.04935047     0.13900
C714        C  0.84089258  0.67981025  0.02369676     0.00900
C715        C  0.81736150  0.67388377  0.04404012     0.15900
C716        C  0.81495276  0.67384281  0.08949345     0.25300
C717        C  0.83623238  0.67951135  0.11577199    -0.41100
C718        C  0.85958854  0.68659992  0.09509747     0.32300
C719        C  0.84405615  0.67515897  0.97637615     0.01000
F720        F  0.79699442  0.66676815  0.01972041    -0.13400
F721        F  0.88060667  0.69217800  0.11895670    -0.13900
C722        C  0.84529971  0.64972771  0.96173709     0.15900
C723        C  0.84528644  0.64433729  0.91728937     0.25300
C724        C  0.84351597  0.66423696  0.88624536    -0.41000
C725        C  0.84309327  0.68991436  0.90073904     0.32200
C726        C  0.84347625  0.69533129  0.94575926     0.14000
F727        F  0.84565483  0.62995483  0.99075622    -0.13400
F728        F  0.84074898  0.70954372  0.87174655    -0.13900
F729        F  0.84653483  0.61940168  0.90462282    -0.16200
F730        F  0.84203543  0.72007449  0.95955923    -0.14700
F731        F  0.88507940  0.69138335  0.03018573    -0.14700
F732        F  0.79192729  0.66724592  0.10759582    -0.16100
C733        C  0.85627630  0.52965856  0.17464711     0.13900
C734        C  0.83331234  0.52425910  0.15269518     0.00900
C735        C  0.81573632  0.54424097  0.14501923     0.15900
C736        C  0.82037229  0.56886000  0.16031585     0.25300
C737        C  0.84255432  0.57408590  0.18468214    -0.41100
C738        C  0.86082076  0.55441802  0.19069083     0.32300
C739        C  0.82735672  0.49796307  0.13762005     0.01000
F740        F  0.79331500  0.53970563  0.12432536    -0.13400
F741        F  0.88293079  0.55912752  0.21216803    -0.13900
C742        C  0.82756166  0.47706415  0.16684223     0.15900
C743        C  0.82289369  0.45216446  0.15178404     0.25300
C744        C  0.81750051  0.44788813  0.10742158    -0.41000
C745        C  0.81525672  0.46913582  0.07917023     0.32200
C746        C  0.82067189  0.49378650  0.09387909     0.14000
F747        F  0.83274620  0.48071155  0.20975565    -0.13400
F748        F  0.81043006  0.46588560  0.03603148    -0.13900
F749        F  0.82477045  0.43211596  0.18006343    -0.16200
F750        F  0.82086744  0.51340846  0.06455342    -0.14700
F751        F  0.87426004  0.51098780  0.18053726    -0.14700
F752        F  0.80208860  0.58714495  0.15350906    -0.16100
C753        C  0.72469991  0.24795678  0.64497222     0.13900
C754        C  0.71586817  0.26635636  0.61485108     0.00900
C755        C  0.69114147  0.26339575  0.59754326     0.15900
C756        C  0.67591923  0.24210461  0.60913448     0.25300
C757        C  0.68512597  0.22321092  0.63828555    -0.41100
C758        C  0.70958544  0.22671112  0.65652678     0.32300
C759        C  0.73334424  0.28719896  0.59879074     0.01000
F760        F  0.68217413  0.28053053  0.56781762    -0.13400
F761        F  0.71893148  0.20961143  0.68596230    -0.13900
C762        C  0.75681210  0.28065809  0.57825046     0.15900
C763        C  0.77307933  0.29962760  0.56131760     0.25300
C764        C  0.76629349  0.32595178  0.56387394    -0.41000
C765        C  0.74323750  0.33262961  0.58620682     0.32200
C766        C  0.72687015  0.31342713  0.60319559     0.14000
F767        F  0.76377789  0.25562023  0.57340633    -0.13400
F768        F  0.73670180  0.35768273  0.59235074    -0.13900
F769        F  0.79544518  0.29191577  0.54178255    -0.16200
F770        F  0.70486650  0.32045254  0.62455499    -0.14700
F771        F  0.74820052  0.25048162  0.66310269    -0.14700
F772        F  0.65261344  0.23947367  0.59036150    -0.16100
C773        C  0.69409300  0.28270652  0.11304313     0.13900
C774        C  0.72011997  0.27888243  0.12322408     0.00900
C775        C  0.72682261  0.25792305  0.14985812     0.15900
C776        C  0.70814301  0.24032145  0.16402550     0.25300
C777        C  0.68218652  0.24335852  0.15227626    -0.41100
C778        C  0.67529293  0.26518722  0.12744338     0.32300
C779        C  0.74045648  0.29560129  0.10358200     0.01000
F780        F  0.75166862  0.25419355  0.16139950    -0.13400
F781        F  0.65071620  0.26860831  0.11420922    -0.13900
C782        C  0.74184889  0.32183387  0.11407918     0.15900
C783        C  0.76082542  0.33747640  0.09480186     0.25300
C784        C  0.77874617  0.32722153  0.06425055    -0.41000
C785        C  0.77724394  0.30087984  0.05390508     0.32200
C786        C  0.75842705  0.28529805  0.07346750     0.14000
F787        F  0.72514160  0.33217832  0.14380986    -0.13400
F788        F  0.79376338  0.29014927  0.02424110    -0.13900
F789        F  0.76204612  0.36249603  0.10701901    -0.16200
F790        F  0.75747969  0.26008677  0.06236544    -0.14700
F791        F  0.68710235  0.30262010  0.08693772    -0.14700
F792        F  0.71561501  0.21979354  0.18827698    -0.16100
C793        C  0.66947518  0.19243384  0.96048111     0.13900
C794        C  0.66576228  0.16879178  0.93900869     0.00900
C795        C  0.65916412  0.14715056  0.96456825     0.15900
C796        C  0.65563997  0.14935865  0.00997384     0.25300
C797        C  0.65706907  0.17348252  0.03036894    -0.41100
C798        C  0.66423255  0.19493157  0.00522771     0.32300
C799        C  0.66622445  0.16754293  0.89008896     0.01000
F800        F  0.65452842  0.12415328  0.94552500    -0.13400
F801        F  0.66625325  0.21842445  0.02406951    -0.13900
C802        C  0.67807780  0.14705778  0.86698023     0.15900
C803        C  0.67615513  0.14532354  0.82124376     0.25300
C804        C  0.66346155  0.16472460  0.79739180    -0.41000
C805        C  0.65305227  0.18590209  0.82056107     0.32200
C806        C  0.65355611  0.18675616  0.86600732     0.14000
F807        F  0.69152410  0.12865138  0.88851778    -0.13400
F808        F  0.64153745  0.20580465  0.79956112    -0.13900
F809        F  0.68635735  0.12444973  0.80062060    -0.16200
F810        F  0.64040938  0.20603116  0.88645180    -0.14700
F811        F  0.67781999  0.21338179  0.93802162    -0.14700
F812        F  0.64922464  0.12816308  0.03352633    -0.16100
C813        C  0.68017281  0.15522755  0.46466342     0.13900
C814        C  0.66695784  0.13830399  0.43758775     0.00900
C815        C  0.65519041  0.11653423  0.45590769     0.15900
C816        C  0.65510415  0.11268229  0.50113559     0.25300
C817        C  0.66654036  0.13079524  0.52889410    -0.41100
C818        C  0.68017223  0.15142945  0.50994597     0.32300
C819        C  0.66271518  0.14496133  0.39131441     0.01000
F820        F  0.64269725  0.09965785  0.43008016    -0.13400
F821        F  0.69185269  0.16910367  0.53529380    -0.13900
C822        C  0.68309382  0.14537933  0.36058614     0.15900
C823        C  0.67837532  0.15113863  0.31652004     0.25300
C824        C  0.65320484  0.15660792  0.30300438    -0.41000
C825        C  0.63316346  0.15726311  0.33449678     0.32200
C826        C  0.63782179  0.15133201  0.37802671     0.14000
F827        F  0.70730670  0.13928199  0.37305193    -0.13400
F828        F  0.60881924  0.16346141  0.32302100    -0.13900
F829        F  0.69805496  0.15006551  0.28693222    -0.16200
F830        F  0.61791951  0.15174584  0.40733358    -0.14700
F831        F  0.69142084  0.17651604  0.44754948    -0.14700
F832        F  0.64282094  0.09182184  0.51777220    -0.16100
C833        C  0.69212640  0.72755198  0.66312958     0.13900
C834        C  0.71327163  0.73418828  0.68877599     0.00900
C835        C  0.71624311  0.75964986  0.70220147     0.15900
C836        C  0.69868834  0.77845237  0.68973933     0.25300
C837        C  0.67773206  0.77223613  0.66327130    -0.41100
C838        C  0.67430575  0.74651474  0.65053739     0.32300
C839        C  0.73339115  0.71535661  0.70021978     0.01000
F840        F  0.73662842  0.76642056  0.72674460    -0.13400
F841        F  0.65460094  0.74001413  0.62425960    -0.13900
C842        C  0.75635192  0.71462728  0.67567022     0.15900
C843        C  0.77737248  0.70024474  0.69013644     0.25300
C844        C  0.77582445  0.68632046  0.72968348    -0.41000
C845        C  0.75239463  0.68651474  0.75358934     0.32200
C846        C  0.73144211  0.70114498  0.73910349     0.14000
F847        F  0.75862596  0.72859060  0.63827668    -0.13400
F848        F  0.75003924  0.67342268  0.79185343    -0.13900
F849        F  0.79918425  0.69985576  0.66517124    -0.16200
F850        F  0.70962275  0.70240726  0.76397853    -0.14700
F851        F  0.68925623  0.70300198  0.64922722    -0.14700
F852        F  0.70234360  0.80292975  0.70347642    -0.16100
C853        C  0.62549283  0.97259951  0.64405708     0.13900
C854        C  0.64850929  0.98179347  0.66167969     0.00900
C855        C  0.66831980  0.96417904  0.67070329     0.15900
C856        C  0.66502790  0.93787540  0.66298307     0.25300
C857        C  0.64147389  0.92850685  0.64709399    -0.41100
C858        C  0.62192390  0.94629648  0.63723987     0.32300
C859        C  0.65143671  0.00971676  0.67084671     0.01000
F860        F  0.69048836  0.97229641  0.68882709    -0.13400
F861        F  0.59909281  0.93826624  0.62152958    -0.13900
C862        C  0.63306574  0.02265954  0.69703673     0.15900
C863        C  0.63338975  0.04943416  0.70060780     0.25300
C864        C  0.65228131  0.06389755  0.67843931    -0.41000
C865        C  0.67200377  0.05080164  0.65533707     0.32200
C866        C  0.67151061  0.02393898  0.65140510     0.14000
F867        F  0.61425802  0.00937534  0.71819346    -0.13400
F868        F  0.69058578  0.06406293  0.63354810    -0.13900
F869        F  0.61458250  0.06133607  0.72447664    -0.16200
F870        F  0.68967002  0.01203631  0.62615118    -0.14700
F871        F  0.60627858  0.98916831  0.63356752    -0.14700
F872        F  0.68458906  0.92156089  0.67296319    -0.16100
C873        C  0.73346759  0.71154823  0.19626864     0.13900
C874        C  0.73373685  0.73794749  0.20608326     0.00900
C875        C  0.75114719  0.74677091  0.23751995     0.15900
C876        C  0.76924589  0.72997159  0.25577871     0.25300
C877        C  0.76953840  0.70377300  0.24463271    -0.41100
C878        C  0.75084289  0.69458542  0.21595487     0.32300
C879        C  0.71707375  0.75642520  0.18178034     0.01000
F880        F  0.75126590  0.77188741  0.24945339    -0.13400
F881        F  0.75114898  0.66961491  0.20320878    -0.13900
C882        C  0.69042675  0.75245017  0.17823950     0.15900
C883        C  0.67473729  0.77081545  0.15792165     0.25300
C884        C  0.68529521  0.79379599  0.14140320    -0.41000
C885        C  0.71215211  0.79679405  0.14197110     0.32200
C886        C  0.72783722  0.77834978  0.16186408     0.14000
F887        F  0.67924361  0.73154617  0.19682445    -0.13400
F888        F  0.72318160  0.81823986  0.12497172    -0.13900
F889        F  0.64895373  0.76699099  0.15778817    -0.16200
F890        F  0.75360034  0.78226244  0.16249514    -0.14700
F891        F  0.71781155  0.70242499  0.16489687    -0.14700
F892        F  0.78731904  0.73954212  0.28273272    -0.16100
C893        C  0.65574659  0.04752840  0.17691327     0.13900
C894        C  0.63450028  0.03316750  0.16326671     0.00900
C895        C  0.61223777  0.04642424  0.15002776     0.15900
C896        C  0.61090134  0.07328101  0.15180646     0.25300
C897        C  0.63216361  0.08770474  0.16528604    -0.41100
C898        C  0.65474453  0.07443069  0.17732945     0.32300
C899        C  0.63552036  0.00448908  0.16271530     0.01000
F900        F  0.59176391  0.03338743  0.13469277    -0.13400
F901        F  0.67568416  0.08736255  0.19110483    -0.13900
C902        C  0.61565588  0.98989889  0.18211282     0.15900
C903        C  0.61606488  0.96301495  0.17967305     0.25300
C904        C  0.63651744  0.95008119  0.15830576    -0.41000
C905        C  0.65679335  0.96461077  0.14026245     0.32200
C906        C  0.65617580  0.99146455  0.14207324     0.14000
F907        F  0.59577728  0.00165836  0.20352921    -0.13400
F908        F  0.67659325  0.95293670  0.11849629    -0.13900
F909        F  0.59637298  0.94963720  0.19812911    -0.16200
F910        F  0.67527661  0.00474987  0.12173863    -0.14700
F911        F  0.67730675  0.03552703  0.19127166    -0.14700
F912        F  0.58869155  0.08510495  0.14012046    -0.16100
C913        C  0.64994099  0.89912334  0.93144867     0.13900
C914        C  0.66302313  0.87777509  0.91363633     0.00900
C915        C  0.67721712  0.86178398  0.94145835     0.15900
C916        C  0.67665620  0.86582026  0.98681458     0.25300
C917        C  0.66158684  0.88580242  0.00526963    -0.41100
C918        C  0.64916986  0.90313000  0.97675547     0.32300
C919        C  0.65905837  0.87046431  0.86727784     0.01000
F920        F  0.68999354  0.84103071  0.92503906    -0.13400
F921        F  0.63515370  0.92324887  0.99269626    -0.13900
C922        C  0.67921054  0.87106796  0.83610933     0.15900
C923        C  0.67460138  0.86500144  0.79211403     0.25300
C924        C  0.64967784  0.85849322  0.77871185    -0.41000
C925        C  0.62987746  0.85695897  0.81042983     0.32200
C926        C  0.63453883  0.86276136  0.85417217     0.14000
F927        F  0.70307694  0.87842866  0.84800085    -0.13400
F928        F  0.60582805  0.84991404  0.79901736    -0.13900
F929        F  0.69413318  0.86678053  0.76234406    -0.16200
F930        F  0.61498110  0.86096750  0.88391030    -0.14700
F931        F  0.63683982  0.91541925  0.90497801    -0.14700
F932        F  0.68915918  0.84881327  0.01277496    -0.16100
C933        C  0.67734909  0.86272325  0.34056331     0.13900
C934        C  0.65982070  0.84868389  0.36630166     0.00900
C935        C  0.63903417  0.83675625  0.34614890     0.15900
C936        C  0.63593985  0.83851207  0.30087317     0.25300
C937        C  0.65372083  0.85214705  0.27455671    -0.41100
C938        C  0.67438552  0.86444439  0.29505507     0.32300
C939        C  0.66266254  0.84676341  0.41436514     0.01000
F940        F  0.62135771  0.82381679  0.37059404    -0.13400
F941        F  0.69204677  0.87765518  0.27109101    -0.13900
C942        C  0.65655649  0.86787234  0.44123169     0.15900
C943        C  0.65623180  0.86522912  0.48682905     0.25300
C944        C  0.66165594  0.84132325  0.50621830    -0.41000
C945        C  0.66905075  0.82053392  0.47936130     0.32200
C946        C  0.66953851  0.82324766  0.43376069     0.14000
F947        F  0.64929554  0.89059383  0.42322445    -0.13400
F948        F  0.67528261  0.79746862  0.49730457    -0.13900
F949        F  0.64863057  0.88549435  0.51189419    -0.16200
F950        F  0.67593561  0.80271711  0.40840515    -0.14700
F951        F  0.69752860  0.87446115  0.35954463    -0.14700
F952        F  0.61502890  0.82744320  0.28299627    -0.16100
C953        C  0.23365949  0.27647931  0.98622992     0.13900
C954        C  0.25562887  0.27960852  0.95976573     0.00900
C955        C  0.26047673  0.30362748  0.94030764     0.15900
C956        C  0.24284529  0.32394013  0.94565973     0.25300
C957        C  0.22011067  0.32034992  0.97031604    -0.41100
C958        C  0.21607561  0.29661395  0.99153165     0.32300
C959        C  0.27297244  0.25745231  0.95181664     0.01000
F960        F  0.28185533  0.30711696  0.91504694    -0.13400
F961        F  0.19521638  0.29294824  0.01800975    -0.13900
C962        C  0.26391926  0.23565608  0.93010366     0.15900
C963        C  0.27993889  0.21430961  0.92345981     0.25300
C964        C  0.30558892  0.21454081  0.93775491    -0.41000
C965        C  0.31450577  0.23647592  0.95978593     0.32200
C966        C  0.29825205  0.25763913  0.96694731     0.14000
F967        F  0.23960073  0.23523807  0.91460877    -0.13400
F968        F  0.33889163  0.23746197  0.97481959    -0.13900
F969        F  0.27037934  0.19369877  0.90215023    -0.16200
F970        F  0.30703222  0.27820249  0.98933660    -0.14700
F971        F  0.22931907  0.25384398  0.00713310    -0.14700
F972        F  0.24753106  0.34671259  0.92548478    -0.16100
C973        C  0.46353354  0.14744843  0.78351241     0.13900
C974        C  0.48617763  0.13944234  0.80420997     0.00900
C975        C  0.48506601  0.13280459  0.84876711     0.15900
C976        C  0.46190507  0.13454491  0.87243357     0.25300
C977        C  0.43922149  0.14283652  0.85194134    -0.41100
C978        C  0.44031379  0.14926234  0.80714133     0.32300
C979        C  0.51128422  0.13978841  0.78036172     0.01000
F980        F  0.50657106  0.12480333  0.86955160    -0.13400
F981        F  0.41897199  0.15755187  0.78614654    -0.13900
C982        C  0.53118706  0.15532929  0.79551412     0.15900
C983        C  0.55477593  0.15641676  0.77308719     0.25300
C984        C  0.55898238  0.14224853  0.73430177    -0.41000
C985        C  0.53895346  0.12645998  0.71931247     0.32200
C986        C  0.51541855  0.12520849  0.74223010     0.14000
F987        F  0.52746778  0.17020582  0.83151832    -0.13400
F988        F  0.54177014  0.11263150  0.68191716    -0.13900
F989        F  0.57329319  0.17183604  0.78917055    -0.16200
F990        F  0.49662264  0.10976869  0.72708045    -0.14700
F991        F  0.46406981  0.15444708  0.74073086    -0.14700
F992        F  0.46197548  0.12895548  0.91582388    -0.16100
C993        C  0.44993480  0.17124725  0.06959170     0.13900
C994        C  0.47018797  0.18517880  0.05031818     0.00900
C995        C  0.46570779  0.19889942  0.01147041     0.15900
C996        C  0.44216189  0.19683668  0.99023156     0.25300
C997        C  0.42244014  0.18144161  0.00802869    -0.41100
C998        C  0.42621303  0.16975784  0.04915423     0.32300
C999        C  0.49630432  0.18346211  0.06909604     0.01000
F1000       F  0.48453669  0.21343043  0.99302802    -0.13400
F1001       F  0.40764207  0.15510742  0.06819618    -0.13900
C1002       C  0.51742798  0.17518406  0.04318501     0.15900
C1003       C  0.54162934  0.17158981  0.06176045     0.25300
C1004       C  0.54489784  0.17537513  0.10670132    -0.41000
C1005       C  0.52374561  0.18328442  0.13268436     0.32200
C1006       C  0.49988612  0.18796943  0.11386753     0.14000
F1007       F  0.51450899  0.16994147  0.00010068    -0.13400
F1008       F  0.52634226  0.18724370  0.17620616    -0.13900
F1009       F  0.56171546  0.16373374  0.03613680    -0.16200
F1010       F  0.48030298  0.19723066  0.13930697    -0.14700
F1011       F  0.45370804  0.15726230  0.10651208    -0.14700
F1012       F  0.43955428  0.20819664  0.95054487    -0.16100
C1013       C  0.26731353  0.24078052  0.46524838     0.13900
C1014       C  0.26762533  0.26605765  0.44932355     0.00900
C1015       C  0.28847158  0.27379800  0.42240242     0.15900
C1016       C  0.30833674  0.25633269  0.41118233     0.25300
C1017       C  0.30726630  0.23066766  0.42566607    -0.41100
C1018       C  0.28643676  0.22325426  0.45298765     0.32300
C1019       C  0.24530959  0.28343368  0.45904920     0.01000
F1020       F  0.28925622  0.29802349  0.40598180    -0.13400
F1021       F  0.28478970  0.19904107  0.46938912    -0.13900
C1022       C  0.24858478  0.30794675  0.47736160     0.15900
C1023       C  0.22731501  0.32424732  0.48495723     0.25300
C1024       C  0.20220199  0.31611904  0.47537449    -0.41000
C1025       C  0.19898755  0.29097404  0.45916633     0.32200
C1026       C  0.22023165  0.27512536  0.45043747     0.14000
F1027       F  0.27237403  0.31607953  0.48817850    -0.13400
F1028       F  0.17531032  0.28181230  0.44995203    -0.13900
F1029       F  0.23143493  0.34811357  0.50107077    -0.16200
F1030       F  0.21626901  0.25183080  0.43186432    -0.14700
F1031       F  0.24848927  0.23299896  0.49343749    -0.14700
F1032       F  0.32821215  0.26436155  0.38548258    -0.16100
C1033       C  0.51680792  0.23812297  0.23892989     0.13900
C1034       C  0.50920609  0.22671526  0.27872080     0.00900
C1035       C  0.52752152  0.21280323  0.30244600     0.15900
C1036       C  0.55235476  0.20865702  0.28526450     0.25300
C1037       C  0.55963158  0.21837884  0.24364828    -0.41100
C1038       C  0.54184945  0.23434052  0.22182926     0.32300
C1039       C  0.48157098  0.22552704  0.29236202     0.01000
F1040       F  0.52070223  0.20140563  0.34084674    -0.13400
F1041       F  0.54776639  0.24434190  0.18195273    -0.13900
C1042       C  0.46556966  0.20771387  0.27212203     0.15900
C1043       C  0.44113535  0.20231989  0.28953078     0.25300
C1044       C  0.43206695  0.21440112  0.32831045    -0.41000
C1045       C  0.44720677  0.23414626  0.34603732     0.32200
C1046       C  0.47184744  0.23941355  0.32849287     0.14000
F1047       F  0.47446302  0.19393662  0.23731272    -0.13400
F1048       F  0.43902863  0.24714317  0.38213678    -0.13900
F1049       F  0.42721997  0.18375066  0.26992990    -0.16200
F1050       F  0.48671937  0.25719216  0.34809054    -0.14700
F1051       F  0.49947958  0.25171568  0.21537622    -0.14700
F1052       F  0.56859423  0.19353102  0.30832869    -0.16100
C1053       C  0.33943055  0.13471441  0.71173997     0.13900
C1054       C  0.33505936  0.15834137  0.69037068     0.00900
C1055       C  0.32887040  0.18008867  0.71582192     0.15900
C1056       C  0.32888115  0.17876605  0.76148871     0.25300
C1057       C  0.33467250  0.15556971  0.78284224    -0.41100
C1058       C  0.33900590  0.13330771  0.75763190     0.32300
C1059       C  0.33845010  0.16103157  0.64202048     0.01000
F1060       F  0.32331616  0.20287189  0.69632908    -0.13400
F1061       F  0.34451915  0.11056604  0.77736407    -0.13900
C1062       C  0.32444242  0.14594253  0.61277582     0.15900
C1063       C  0.32730480  0.14938718  0.56735060     0.25300
C1064       C  0.34431190  0.16799258  0.55021989    -0.41000
C1065       C  0.35830758  0.18300785  0.57972143     0.32200
C1066       C  0.35553737  0.17943877  0.62488028     0.14000
F1067       F  0.30750097  0.12828696  0.62821203    -0.13400
F1068       F  0.37528483  0.20084227  0.56499067    -0.13900
F1069       F  0.31297668  0.13489687  0.54023197    -0.16200
F1070       F  0.37004036  0.19375953  0.65201218    -0.14700
F1071       F  0.34557075  0.11332181  0.68837748    -0.14700
F1072       F  0.32353572  0.20032657  0.78495520    -0.16100
C1073       C  0.35670896  0.13216284  0.20388273     0.13900
C1074       C  0.33123376  0.13405092  0.18992919     0.00900
C1075       C  0.31189455  0.14142678  0.22018713     0.15900
C1076       C  0.31802055  0.14623659  0.26406639     0.25300
C1077       C  0.34359074  0.14369675  0.27822724    -0.41100
C1078       C  0.36282500  0.13668245  0.24725928     0.32300
C1079       C  0.32592880  0.12930411  0.14311577     0.01000
F1080       F  0.28711025  0.14365745  0.20740045    -0.13400
F1081       F  0.38792400  0.13456302  0.25840881    -0.13900
C1082       C  0.33449698  0.10627838  0.12347638     0.15900
C1083       C  0.33656587  0.10431171  0.07798892     0.25300
C1084       C  0.32925065  0.12503379  0.05125763    -0.41000
C1085       C  0.31842417  0.14716242  0.07082999     0.32200
C1086       C  0.31694859  0.14934216  0.11643686     0.14000
F1087       F  0.34267439  0.08635333  0.14855261    -0.13400
F1088       F  0.31175266  0.16775548  0.04602526    -0.13900
F1089       F  0.34704439  0.08267778  0.06019439    -0.16200
F1090       F  0.30904325  0.17194082  0.13440394    -0.14700
F1091       F  0.37601726  0.12656193  0.17493536    -0.14700
F1092       F  0.29893726  0.15302516  0.29262934    -0.16100
C1093       C  0.47566691  0.17916314  0.53888802     0.13900
C1094       C  0.49754263  0.18545786  0.51340735     0.00900
C1095       C  0.49506585  0.18831745  0.46791445     0.15900
C1096       C  0.47177290  0.18313602  0.44794338     0.25300
C1097       C  0.45012398  0.17645144  0.47333254    -0.41100
C1098       C  0.45198493  0.17532652  0.51901184     0.32300
C1099       C  0.52334160  0.18627345  0.53330717     0.01000
F1100       F  0.51528885  0.19613092  0.44276749    -0.13400
F1101       F  0.43101804  0.16981593  0.54421878    -0.13900
C1102       C  0.54335226  0.17117772  0.51530979     0.15900
C1103       C  0.56688475  0.16921572  0.53604851     0.25300
C1104       C  0.57063885  0.18124095  0.57659869    -0.41000
C1105       C  0.55112831  0.19755501  0.59355935     0.32200
C1106       C  0.52779831  0.20030630  0.57170361     0.14000
F1107       F  0.53956189  0.15662863  0.47921370    -0.13400
F1108       F  0.55375825  0.20936205  0.63278474    -0.13900
F1109       F  0.58538723  0.15397334  0.51768622    -0.16200
F1110       F  0.50921632  0.21588092  0.58899156    -0.14700
F1111       F  0.47735607  0.17578143  0.58277204    -0.14700
F1112       F  0.47014757  0.18551859  0.40384221    -0.16100
C1113       C  0.30353669  0.73740904  0.80320426     0.13900
C1114       C  0.27704579  0.74042870  0.81169690     0.00900
C1115       C  0.26844350  0.76103267  0.83783621     0.15900
C1116       C  0.28590239  0.77856974  0.85447695     0.25300
C1117       C  0.31249071  0.77553699  0.84620914    -0.41100
C1118       C  0.32112549  0.75458361  0.82076527     0.32300
C1119       C  0.25834786  0.72189601  0.79421730     0.01000
F1120       F  0.24307003  0.76400741  0.84786629    -0.13400
F1121       F  0.34653057  0.75115074  0.81155339    -0.13900
C1122       C  0.26142712  0.69543701  0.80199176     0.15900
C1123       C  0.24297746  0.67808668  0.78807234     0.25300
C1124       C  0.22079657  0.68689789  0.76673490    -0.41000
C1125       C  0.21804021  0.71334779  0.75795359     0.32200
C1126       C  0.23674926  0.73061581  0.77123448     0.14000
F1127       F  0.28183286  0.68639564  0.82464251    -0.13400
F1128       F  0.19727618  0.72261466  0.73643248    -0.13900
F1129       F  0.24649034  0.65274198  0.79696488    -0.16200
F1130       F  0.23373819  0.75592428  0.76156890    -0.14700
F1131       F  0.31235776  0.71821034  0.77685409    -0.14700
F1132       F  0.27666692  0.79842149  0.87898838    -0.16100
C1133       C  0.47424588  0.83275012  0.99936555     0.13900
C1134       C  0.49712230  0.82976879  0.97458991     0.00900
C1135       C  0.49567225  0.82931275  0.92869723     0.15900
C1136       C  0.47208096  0.83260498  0.90793241     0.25300
C1137       C  0.44921731  0.83592709  0.93260297    -0.41100
C1138       C  0.45048231  0.83545209  0.97855873     0.32300
C1139       C  0.52269092  0.82942616  0.99602678     0.01000
F1140       F  0.51724930  0.82562514  0.90386787    -0.13400
F1141       F  0.42875345  0.83821577  0.00332636    -0.13900
C1142       C  0.52878515  0.81162112  0.02912260     0.15900
C1143       C  0.55232645  0.81306968  0.05108355     0.25300
C1144       C  0.57022932  0.83238945  0.04029442    -0.41000
C1145       C  0.56459710  0.84897789  0.00492647     0.32200
C1146       C  0.54106792  0.84777897  0.98383264     0.14000
F1147       F  0.51172087  0.79314807  0.04078618    -0.13400
F1148       F  0.58113448  0.86772860  0.99220162    -0.13900
F1149       F  0.55703081  0.79625550  0.08401421    -0.16200
F1150       F  0.53560905  0.86580297  0.95310182    -0.14700
F1151       F  0.47500216  0.83394947  0.04366953    -0.14700
F1152       F  0.47154937  0.83170385  0.86358248    -0.16100
C1153       C  0.33664710  0.01865352  0.90336558     0.13900
C1154       C  0.35858527  0.00749910  0.88366508     0.00900
C1155       C  0.37875785  0.02320647  0.86909821     0.15900
C1156       C  0.37736758  0.04968251  0.87523923     0.25300
C1157       C  0.35572969  0.06089173  0.89613863    -0.41100
C1158       C  0.33520997  0.04517774  0.90962526     0.32300
C1159       C  0.36068237  0.97940626  0.87931612     0.01000
F1160       F  0.39991910  0.01286088  0.84917554    -0.13400
F1161       F  0.31444709  0.05521446  0.93116021    -0.13900
C1162       C  0.34224392  0.96590580  0.85583910     0.15900
C1163       C  0.34397578  0.93927534  0.85221528     0.25300
C1164       C  0.36440247  0.92570897  0.87168619    -0.41000
C1165       C  0.38289397  0.93929728  0.89513983     0.32200
C1166       C  0.38097254  0.96597030  0.89905786     0.14000
F1167       F  0.32284594  0.97861121  0.83562016    -0.13400
F1168       F  0.40245707  0.92675280  0.91511294    -0.13900
F1169       F  0.32604143  0.92689043  0.82847732    -0.16200
F1170       F  0.39863698  0.97868041  0.92284807    -0.14700
F1171       F  0.31711148  0.00369850  0.91827999    -0.14700
F1172       F  0.39741786  0.06429682  0.86131225    -0.16100
C1173       C  0.46219627  0.79598161  0.72700123     0.13900
C1174       C  0.48103418  0.78247977  0.75059964     0.00900
C1175       C  0.47415049  0.77175765  0.79135563     0.15900
C1176       C  0.44998357  0.77699407  0.81033102     0.25300
C1177       C  0.43215668  0.79283937  0.78856193    -0.41100
C1178       C  0.43795875  0.80081423  0.74552524     0.32300
C1179       C  0.50836679  0.78330809  0.73536399     0.01000
F1180       F  0.49143049  0.75762100  0.81415078    -0.13400
F1181       F  0.42109351  0.81550650  0.72275138    -0.13900
C1182       C  0.52728502  0.79370695  0.76256807     0.15900
C1183       C  0.55126845  0.80076182  0.74519621     0.25300
C1184       C  0.55660399  0.79815013  0.70023403    -0.41000
C1185       C  0.53861686  0.78557252  0.67392329     0.32200
C1186       C  0.51492040  0.77786924  0.69155105     0.14000
F1187       F  0.52191330  0.79907360  0.80517261    -0.13400
F1188       F  0.54292542  0.78273367  0.63029843    -0.13900
F1189       F  0.56882631  0.81133450  0.77201967    -0.16200
F1190       F  0.49767291  0.76655530  0.66500150    -0.14700
F1191       F  0.46802812  0.80696921  0.68782400    -0.14700
F1192       F  0.44517131  0.76869082  0.85173922    -0.16100
C1193       C  0.30514352  0.75421065  0.28160072     0.13900
C1194       C  0.27833446  0.75504980  0.28817796     0.00900
C1195       C  0.26777079  0.77479562  0.31436408     0.15900
C1196       C  0.28353098  0.79332267  0.33349673     0.25300
C1197       C  0.31045787  0.79264400  0.32698876    -0.41100
C1198       C  0.32099760  0.77277431  0.30062103     0.32300
C1199       C  0.26118288  0.73519659  0.26890685     0.01000
F1200       F  0.24202661  0.77581843  0.32227729    -0.13400
F1201       F  0.34668706  0.77152625  0.29226126    -0.13900
C1202       C  0.26324051  0.70918594  0.28128317     0.15900
C1203       C  0.24460535  0.69131778  0.26862631     0.25300
C1204       C  0.22331184  0.69922153  0.24395226    -0.41000
C1205       C  0.22216268  0.72487795  0.22937039     0.32200
C1206       C  0.24107265  0.74254243  0.24115587     0.14000
F1207       F  0.28227112  0.70145724  0.30828676    -0.13400
F1208       F  0.20202406  0.73315753  0.20523014    -0.13900
F1209       F  0.24610653  0.66686526  0.28395813    -0.16200
F1210       F  0.23925107  0.76714099  0.22666102    -0.14700
F1211       F  0.31595911  0.73569334  0.25593275    -0.14700
F1212       F  0.27232914  0.81174582  0.35887296    -0.16100
C1213       C  0.48425086  0.87911902  0.44021557     0.13900
C1214       C  0.48750365  0.86305366  0.47674087     0.00900
C1215       C  0.46696800  0.84774144  0.49094407     0.15900
C1216       C  0.44383485  0.84758662  0.46834009     0.25300
C1217       C  0.44085329  0.86246551  0.42994180    -0.41100
C1218       C  0.46114643  0.87878752  0.41698066     0.32300
C1219       C  0.51243998  0.86116248  0.49954066     0.01000
F1220       F  0.46947486  0.83249973  0.52676523    -0.13400
F1221       F  0.45893130  0.89423072  0.38135224    -0.13900
C1222       C  0.52123117  0.88137207  0.52562707     0.15900
C1223       C  0.54288336  0.87790562  0.55204055     0.25300
C1224       C  0.55630688  0.85424954  0.55210219    -0.41000
C1225       C  0.54788919  0.83443834  0.52458062     0.32200
C1226       C  0.52622984  0.83787275  0.49869030     0.14000
F1227       F  0.50813690  0.90402757  0.52695285    -0.13400
F1228       F  0.55965834  0.81106060  0.52470468    -0.13900
F1229       F  0.55046118  0.89751311  0.57792511    -0.16200
F1230       F  0.51816886  0.81806626  0.47367468    -0.14700
F1231       F  0.50375031  0.89437694  0.42620915    -0.14700
F1232       F  0.42463318  0.83241040  0.48374105    -0.16100
C1233       C  0.38781951  0.03932910  0.39142157     0.13900
C1234       C  0.36595067  0.02668147  0.40817325     0.00900
C1235       C  0.34714687  0.04107655  0.43093256     0.15900
C1236       C  0.34951577  0.06777306  0.43506800     0.25300
C1237       C  0.37091399  0.08063667  0.41682897    -0.41100
C1238       C  0.39035962  0.06600272  0.39592371     0.32300
C1239       C  0.36280014  0.99851325  0.40191997     0.01000
F1240       F  0.32645034  0.02921200  0.44919966    -0.13400
F1241       F  0.41112255  0.07765749  0.37748308    -0.13900
C1242       C  0.38132304  0.98131196  0.41788154     0.15900
C1243       C  0.37921897  0.95492004  0.41040021     0.25300
C1244       C  0.35824423  0.94495608  0.38731343    -0.41000
C1245       C  0.33920947  0.96210623  0.37249830     0.32200
C1246       C  0.34162155  0.98868039  0.37932218     0.14000
F1247       F  0.40162840  0.99013165  0.44065617    -0.13400
F1248       F  0.31907531  0.95334828  0.34923275    -0.13900
F1249       F  0.39798675  0.93908271  0.42544288    -0.16200
F1250       F  0.32391138  0.00492444  0.36206460    -0.14700
F1251       F  0.40624519  0.02597564  0.36899450    -0.14700
F1252       F  0.33073553  0.08109146  0.45669937    -0.16100
C1253       C  0.35059831  0.87368224  0.65577587     0.13900
C1254       C  0.33480718  0.85456315  0.63845025     0.00900
C1255       C  0.32237466  0.83740648  0.66710415     0.15900
C1256       C  0.32624817  0.83883545  0.71226469     0.25300
C1257       C  0.34313860  0.85712114  0.72956465    -0.41100
C1258       C  0.35486882  0.87488848  0.70080397     0.32300
C1259       C  0.33282644  0.85157405  0.59035588     0.01000
F1260       F  0.30687608  0.81889610  0.65117616    -0.13400
F1261       F  0.37084152  0.89320560  0.71609260    -0.13900
C1262       C  0.34271717  0.82945680  0.56973198     0.15900
C1263       C  0.34386224  0.82782391  0.52402430     0.25300
C1264       C  0.33531725  0.84847235  0.49780208    -0.41000
C1265       C  0.32384602  0.86994555  0.51886282     0.32200
C1266       C  0.32272635  0.87145260  0.56461141     0.14000
F1267       F  0.35251373  0.80990344  0.59393150    -0.13400
F1268       F  0.31434375  0.88994508  0.49541697    -0.13900
F1269       F  0.35411501  0.80626081  0.50568155    -0.16200
F1270       F  0.31220844  0.89261497  0.58390983    -0.14700
F1271       F  0.36287744  0.89049430  0.62878865    -0.14700
F1272       F  0.31439106  0.82146299  0.73872847    -0.16100
C1273       C  0.35359272  0.83771225  0.07827320     0.13900
C1274       C  0.33609563  0.85692696  0.09156113     0.00900
C1275       C  0.32085182  0.86913607  0.06020726     0.15900
C1276       C  0.32328455  0.86245378  0.01596053     0.25300
C1277       C  0.34111140  0.84338326  0.00226731    -0.41100
C1278       C  0.35619382  0.83105429  0.03410160     0.32300
C1279       C  0.33433482  0.86442778  0.13817697     0.01000
F1280       F  0.30356173  0.88751076  0.07252669    -0.13400
F1281       F  0.37432182  0.81334959  0.02242046    -0.13900
C1282       C  0.34510514  0.88757221  0.15233833     0.15900
C1283       C  0.34642287  0.89313096  0.19708180     0.25300
C1284       C  0.33648748  0.87584277  0.22835705    -0.41000
C1285       C  0.32462775  0.85315449  0.21374636     0.32200
C1286       C  0.32375524  0.84747969  0.16910486     0.14000
F1287       F  0.35553339  0.90416152  0.12286442    -0.13400
F1288       F  0.31549434  0.83549003  0.24267956    -0.13900
F1289       F  0.35813017  0.91502573  0.20984310    -0.16200
F1290       F  0.31337378  0.82495214  0.15603199    -0.14700
F1291       F  0.36874279  0.82590961  0.10811105    -0.14700
F1292       F  0.30822277  0.87476400  0.98658807    -0.16100
C1293       C  0.50377439  0.86341534  0.20110896     0.13900
C1294       C  0.49827206  0.83707336  0.20660721     0.00900
C1295       C  0.51768661  0.81881175  0.19866026     0.15900
C1296       C  0.54244826  0.82668311  0.18763265     0.25300
C1297       C  0.54814071  0.85300027  0.18323244    -0.41100
C1298       C  0.52851480  0.87128365  0.18875221     0.32300
C1299       C  0.47292307  0.82887112  0.22387198     0.01000
F1300       F  0.51262586  0.79329949  0.20145428    -0.13400
F1301       F  0.53351041  0.89667016  0.18353045    -0.13900
C1302       C  0.45027275  0.83724814  0.20388876     0.15900
C1303       C  0.42667291  0.83463278  0.22564303     0.25300
C1304       C  0.42550761  0.82403279  0.26813111    -0.41000
C1305       C  0.44761287  0.81218821  0.28501347     0.32200
C1306       C  0.47125446  0.81482563  0.26318599     0.14000
F1307       F  0.45123367  0.84967807  0.16482015    -0.13400
F1308       F  0.44708292  0.80093813  0.32509307    -0.13900
F1309       F  0.40537810  0.84502584  0.20721909    -0.16200
F1310       F  0.49284197  0.80605288  0.28285839    -0.14700
F1311       F  0.48542962  0.88156293  0.20908541    -0.14700
F1312       F  0.56075240  0.80840654  0.18009872    -0.16100
loop_ 
_geom_bond_atom_site_label_1 
_geom_bond_atom_site_label_2 
_geom_bond_distance 
_geom_bond_site_symmetry_2 
_ccdc_geom_bond_type 
O1           C16   1.271       .  A
O1           Al9   1.941       .  S
C2           O12   1.267       .  A
C2            O3   1.259       .  A
C2         C1284   1.485       .  S
O3           Al5   1.887       .  S
O4            C6   1.269       .  A
O4           Al5   1.948       .  S
Al5          O13   1.966       .  S
Al5          O15   1.898       .  S
Al5          O14   1.776       .  S
C6           O19   1.264       .  A
C6         C1197   1.503       .  S
O7           C17   1.267       .  A
O7           Al9   1.947       .  S
O8           C21   1.272       .  A
O8          Al18   1.943       .  S
Al9          O22   1.893       .  S
Al9          O19   1.906       .  S
Al9          O14   1.774       .  S
O10          C17   1.252       .  A
O10         Al18   1.862       .  S
O11          C20   1.255       .  A
O11         Al18   1.870       .  S
O12         Al18   1.935       .  S
O13          C20   1.272       .  A
O14         Al18   1.771       .  S
O15          C16   1.265       .  A
C16        C1264   1.496       .  S
C17        C1304   1.477       .  S
C20        C1244   1.488       .  S
C21          O22   1.258       .  A
C21        C1217   1.496       .  S
O23          C38   1.272       .  A
O23         Al31   1.940       .  S
C24          O34   1.268       .  A
C24          O25   1.266       .  A
C24        C1257   1.487       .  S
O25         Al27   1.902       .  S
O26          C28   1.258       .  A
O26         Al27   1.904       .  S
Al27         O35   1.902       .  S
Al27         O37   1.887       .  S
Al27         O36   1.780       .  S
C28          O41   1.259       .  A
C28        C1117   1.480       .  S
O29          C39   1.266       .  A
O29         Al31   1.933       .  S
O30          C43   1.267       .  A
O30         Al40   1.936       .  S
Al31         O44   1.895       .  S
Al31         O41   1.901       .  S
Al31         O36   1.775       .  S
O32          C39   1.259       .  A
O32         Al40   1.880       .  S
O33          C42   1.262       .  A
O33         Al40   1.902       .  S
O34         Al40   1.935       .  S
O35          C42   1.260       .  A
O36         Al40   1.770       .  S
O37          C38   1.263       .  A
C38        C1277   1.488   1_556  S
C39        C1177   1.484       .  S
C42        C1164   1.473       .  S
C43          O44   1.260       .  A
C43        C1137   1.485       .  S
O45          C60   1.254       .  A
O45         Al53   1.878       .  S
C46          O56   1.270       .  A
C46          O47   1.265       .  A
C46        C1077   1.489       .  S
O47         Al49   1.905       .  S
O48          C50   1.259       .  A
O48         Al49   1.885       .  S
Al49         O57   1.916       .  S
Al49         O59   1.914       .  S
Al49         O58   1.776       .  S
C50          O63   1.272       .  A
C50        C1044   1.504       .  S
O51          C61   1.265       .  A
O51         Al53   1.926       .  S
O52          C65   1.268       .  A
O52         Al62   1.908       .  S
Al53         O66   1.937       .  S
Al53         O63   1.964       .  S
Al53         O58   1.788       .  S
O54          C61   1.258       .  A
O54         Al62   1.892       .  S
O55          C64   1.261       .  A
O55         Al62   1.914       .  S
O56         Al62   1.923       .  S
O57          C64   1.263       .  A
O58         Al62   1.780       .  S
O59          C60   1.262       .  A
C60        C1097   1.466       .  S
C61        C1017   1.490       .  S
C64        C1237   1.487       .  S
C65          O66   1.272       .  A
C65        C1064   1.492       .  S
O67          C82   1.270       .  A
O67         Al75   1.936       .  S
C68          O78   1.267   1_554  A
C68          O69   1.263   1_554  A
C68        C1084   1.478       .  S
O69         Al71   1.899       .  S
O70          C72   1.266       .  A
O70         Al71   1.929       .  S
Al71         O79   1.932       .  S
Al71         O81   1.904       .  S
Al71         O80   1.775       .  S
C72          O85   1.261       .  A
C72         C964   1.485       .  S
O73          C83   1.268       .  A
O73         Al75   1.945       .  S
O74          C87   1.266       .  A
O74         Al84   1.928       .  S
Al75         O88   1.889       .  S
Al75         O85   1.893       .  S
Al75         O80   1.770       .  S
O76          C83   1.255       .  A
O76         Al84   1.869       .  S
O77          C86   1.255       .  A
O77         Al84   1.866       .  S
O78         Al84   1.928       .  S
O79          C86   1.265       .  A
O80         Al84   1.766       .  S
O81          C82   1.265       .  A
C82        C1057   1.481       .  S
C83         C997   1.484   1_556  S
C86        C1157   1.471       .  S
C87          O88   1.260       .  A
C87         C977   1.484       .  S
O89         C104   1.252       .  A
O89         Al97   1.865       .  S
C90         O100   1.268       .  A
C90          O91   1.267       .  A
C90         C917   1.493       .  S
O91         Al93   1.933       .  S
O92          C94   1.256       .  A
O92         Al93   1.868       .  S
Al93        O101   1.895       .  S
Al93        O103   1.936       .  S
Al93        O102   1.773       .  S
C94         O107   1.273       .  A
C94        C1144   1.496       .  S
O95         C105   1.261       .  A
O95         Al97   1.904       .  S
O96         C109   1.271       .  A
O96        Al106   1.915       .  S
Al97        O110   1.937       .  S
Al97        O107   1.972       .  S
Al97        O102   1.771       .  S
O98         C105   1.263       .  A
O98        Al106   1.916       .  S
O99         C108   1.269       .  A
O99        Al106   1.941       .  S
O100       Al106   1.917       .  S
O101        C108   1.262       .  A
O102       Al106   1.773       .  S
O103        C104   1.263       .  A
C104       C1297   1.467       .  S
C105        C884   1.486       .  S
C108        C904   1.483       .  S
C109        O110   1.273       .  A
C109        C937   1.491       .  S
O111        C126   1.265       .  A
O111       Al119   1.924       .  S
C112        O122   1.269       .  A
C112        O113   1.267       .  A
C112        C924   1.485       .  S
O113       Al115   1.913       .  S
O114        C116   1.261       .  A
O114       Al115   1.902       .  S
Al115       O123   1.895       .  S
Al115       O125   1.909       .  S
Al115       O124   1.786       .  S
C116        O129   1.263       .  A
C116        C837   1.477       .  S
O117        C127   1.258       .  A
O117       Al119   1.907       .  S
O118        C131   1.267       .  A
O118       Al128   1.931       .  S
Al119       O132   1.895       .  S
Al119       O129   1.914       .  S
Al119       O124   1.792       .  S
O120        C127   1.259       .  A
O120       Al128   1.898       .  S
O121        C130   1.260       .  A
O121       Al128   1.909       .  S
O122       Al128   1.920       .  S
O123        C130   1.254       .  A
O124       Al128   1.779       .  S
O125        C126   1.265       .  A
C126        C944   1.478       .  S
C127       C1184   1.483       .  S
C130        C857   1.489       .  S
C131        O132   1.263       .  A
C131       C1224   1.487       .  S
O133        C148   1.257       .  A
O133       Al141   1.897       .  S
C134        O144   1.268       .  A
C134        O135   1.263       .  A
C134        C824   1.478       .  S
O135       Al137   1.900       .  S
O136        C138   1.260       .  A
O136       Al137   1.887       .  S
Al137       O145   1.902       .  S
Al137       O147   1.912       .  S
Al137       O146   1.778       .  S
C138        O151   1.274       .  A
C138       C1037   1.503       .  S
O139        C149   1.266       .  A
O139       Al141   1.918       .  S
O140        C153   1.265       .  A
O140       Al150   1.907       .  S
Al141       O154   1.929       .  S
Al141       O151   1.964       .  S
Al141       O146   1.783       .  S
O142        C149   1.265       .  A
O142       Al150   1.925       .  S
O143        C152   1.265       .  A
O143       Al150   1.932       .  S
O144       Al150   1.923       .  S
O145        C152   1.263       .  A
O146       Al150   1.783       .  S
O147        C148   1.260       .  A
C148       C1004   1.472       .  S
C149        C777   1.496       .  S
C152        C897   1.491       .  S
C153        O154   1.269       .  A
C153        C797   1.480       .  S
O155        C170   1.268       .  A
O155       Al163   1.913       .  S
C156        O166   1.267       .  A
C156        O157   1.266       .  A
C156        C817   1.483       .  S
O157       Al159   1.900       .  S
O158        C160   1.268       .  A
O158       Al159   1.943       .  S
Al159       O167   1.947       .  S
Al159       O169   1.919       .  S
Al159       O168   1.783       .  S
C160        O173   1.263       .  A
C160        C757   1.498       .  S
O161        C171   1.262       .  A
O161       Al163   1.920       .  S
O162        C175   1.264       .  A
O162       Al172   1.924       .  S
Al163       O176   1.898       .  S
Al163       O173   1.915       .  S
Al163       O168   1.774       .  S
O164        C171   1.257       .  A
O164       Al172   1.876       .  S
O165        C174   1.257       .  A
O165       Al172   1.884       .  S
O166       Al172   1.926       .  S
O167        C174   1.266       .  A
O168       Al172   1.771       .  S
O169        C170   1.269       .  A
C170        C804   1.492       .  S
C171       C1104   1.480       .  S
C174        C864   1.484       .  S
C175        O176   1.262       .  A
C175        C984   1.493       .  S
O177        C192   1.253       .  A
O177       Al185   1.865       .  S
C178        O188   1.265       .  A
C178        O179   1.270       .  A
C178        C697   1.472       .  S
O179       Al181   1.923       .  S
O180        C182   1.256       .  A
O180       Al181   1.884       .  S
Al181       O189   1.887       .  S
Al181       O191   1.945       .  S
Al181       O190   1.770       .  S
C182        O195   1.273       .  A
C182        C664   1.491       .  S
O183        C193   1.265       .  A
O183       Al185   1.908       .  S
O184        C197   1.267       .  A
O184       Al194   1.904       .  S
Al185       O198   1.927       .  S
Al185       O195   1.970       .  S
Al185       O190   1.766       .  S
O186        C193   1.263       .  A
O186       Al194   1.917       .  S
O187        C196   1.264       .  A
O187       Al194   1.927       .  S
O188       Al194   1.897       .  S
O189        C196   1.259       .  A
O190       Al194   1.778       .  S
O191        C192   1.267       .  A
C192        C737   1.478       .  S
C193        C877   1.479       .  S
C196        C677   1.481       .  S
C197        O198   1.270       .  A
C197        C717   1.486       .  S
O199        C214   1.252       .  A
O199       Al207   1.855       .  S
C200        O210   1.264       .  A
C200        O201   1.266       .  A
C200        C704   1.480       .  S
O201       Al203   1.916       .  S
O202        C204   1.261       .  A
O202       Al203   1.896       .  S
Al203       O211   1.926       .  S
Al203       O213   1.925       .  S
Al203       O212   1.794       .  S
C204        O217   1.261       .  A
C204        C844   1.486       .  S
O205        C215   1.251       .  A
O205       Al207   1.888       .  S
O206        C219   1.265       .  A
O206       Al216   1.903       .  S
Al207       O220   1.908       .  S
Al207       O217   1.909       .  S
Al207       O212   1.787       .  S
O208        C215   1.255       .  A
O208       Al216   1.898       .  S
O209        C218   1.257       .  A
O209       Al216   1.895       .  S
O210       Al216   1.888       .  S
O211        C218   1.263       .  A
O212       Al216   1.787       .  S
O213        C214   1.260       .  A
C214        C724   1.478       .  S
C215        C637   1.466       .  S
C218        C617   1.492       .  S
C219        O220   1.267       .  A
C219        C597   1.482       .  S
O221        C236   1.258       .  A
O221       Al229   1.887       .  S
C222        O232   1.268       .  A
C222        O223   1.264       .  A
C222        C524   1.479       .  S
O223       Al225   1.908       .  S
O224        C226   1.257       .  A
O224       Al225   1.875       .  S
Al225       O233   1.887       .  S
Al225       O235   1.903       .  S
Al225       O234   1.772       .  S
C226        O239   1.274       .  A
C226        C584   1.501       .  S
O227        C237   1.267       .  A
O227       Al229   1.921       .  S
O228        C241   1.267       .  A
O228       Al238   1.915       .  S
Al229       O242   1.944       .  S
Al229       O239   1.976       .  S
Al229       O234   1.781       .  S
O230        C237   1.263       .  A
O230       Al238   1.914       .  S
O231        C240   1.264       .  A
O231       Al238   1.931       .  S
O232       Al238   1.923       .  S
O233        C240   1.257       .  A
O234       Al238   1.779       .  S
O235        C236   1.259       .  A
C236        C564   1.479       .  S
C237       C1204   1.489       .  S
C240        C684   1.473       .  S
C241        O242   1.271       .  A
C241        C537   1.486       .  S
O243        C258   1.265       .  A
O243       Al251   1.915       .  S
C244        O254   1.267       .  A
C244        O245   1.263       .  A
C244        C517   1.489       .  S
O245       Al247   1.900       .  S
O246        C248   1.262       .  A
O246       Al247   1.913       .  S
Al247       O255   1.908       .  S
Al247       O257   1.913       .  S
Al247       O256   1.787       .  S
C248        O261   1.258       .  A
C248       C1124   1.477       .  S
O249        C259   1.258       .  A
O249       Al251   1.905       .  S
O250        C263   1.266       .  A
O250       Al260   1.927       .  S
Al251       O264   1.881       .  S
Al251       O261   1.882       .  S
Al251       O256   1.780       .  S
O252        C259   1.261       .  A
O252       Al260   1.906       .  S
O253        C262   1.262       .  A
O253       Al260   1.908       .  S
O254       Al260   1.922       .  S
O255        C262   1.260       .  A
O256       Al260   1.780       .  S
O257        C258   1.266       .  A
C258        C544   1.492       .  S
C259        C477   1.486       .  S
C262        C624   1.493       .  S
C263        O264   1.261       .  A
C263        C504   1.476       .  S
O265        C280   1.274       .  A
O265       Al273   1.957       .  S
C266        O276   1.270       .  A
C266        O267   1.262       .  A
C266        C437   1.496       .  S
O267       Al269   1.893       .  S
O268        C270   1.258       .  A
O268       Al269   1.902       .  S
Al269       O277   1.905       .  S
Al269       O279   1.883       .  S
Al269       O278   1.782       .  S
C270        O283   1.264       .  A
C270        C764   1.501       .  S
O271        C281   1.265       .  A
O271       Al273   1.934       .  S
O272        C285   1.266       .  A
O272       Al282   1.927       .  S
Al273       O286   1.910       .  S
Al273       O283   1.935       .  S
Al273       O278   1.788       .  S
O274        C281   1.257       .  A
O274       Al282   1.874       .  S
O275        C284   1.259       .  A
O275       Al282   1.904       .  S
O276       Al282   1.943       .  S
O277        C284   1.259       .  A
O278       Al282   1.777       .  S
O279        C280   1.262       .  A
C280        C464   1.497       .  S
C281        C644   1.481       .  S
C284        C424   1.481       .  S
C285        O286   1.264       .  A
C285        C657   1.497       .  S
O287        C302   1.268       .  A
O287       Al295   1.936   1_556  S
C288        O298   1.266       .  A
C288        O289   1.263       .  A
C288        C457   1.493       .  S
O289       Al291   1.905       .  S
O290        C292   1.270       .  A
O290       Al291   1.938       .  S
Al291       O299   1.945       .  S
Al291       O301   1.921   1_554  S
Al291       O300   1.773       .  S
C292        O305   1.267       .  A
C292        C784   1.495       .  S
O293        C303   1.263       .  A
O293       Al295   1.929       .  S
O294        C307   1.269   1_554  A
O294       Al304   1.933       .  S
Al295       O308   1.891   1_554  S
Al295       O305   1.912       .  S
Al295       O300   1.776       .  S
O296        C303   1.252       .  A
O296       Al304   1.884       .  S
O297        C306   1.252       .  A
O297       Al304   1.869       .  S
O298       Al304   1.923       .  S
O299        C306   1.266       .  A
O300       Al304   1.769       .  S
O301        C302   1.267       .  A
C302        C444   1.501       .  S
C303        C744   1.475       .  S
C306        C397   1.469       .  S
C307        O308   1.265       .  A
C307        C604   1.483       .  S
O309        C324   1.268       .  A
O309       Al317   1.928       .  S
C310        O320   1.269       .  A
C310        O311   1.268       .  A
C310        C357   1.499       .  S
O311       Al313   1.920       .  S
O312        C314   1.258       .  A
O312       Al313   1.899       .  S
Al313       O321   1.900       .  S
Al313       O323   1.893   1_556  S
Al313       O322   1.781       .  S
C314        O327   1.260       .  A
C314        C957   1.478       .  S
O315        C325   1.266       .  A
O315       Al317   1.928   1_556  S
O316        C329   1.265   1_556  A
O316       Al326   1.932       .  S
Al317       O330   1.910       .  S
Al317       O327   1.911   1_554  S
Al317       O322   1.785   1_554  S
O318        C325   1.261       .  A
O318       Al326   1.885       .  S
O319        C328   1.266       .  A
O319       Al326   1.925       .  S
O320       Al326   1.930       .  S
O321        C328   1.259       .  A
O322       Al326   1.775       .  S
O323        C324   1.263       .  A
C324        C384   1.468       .  S
C325        C484   1.485       .  S
C328        C404   1.491       .  S
C329        O330   1.260       .  A
C329        C577   1.489       .  S
O331        C346   1.258       .  A
O331       Al339   1.887       .  S
C332        O342   1.267       .  A
C332        O333   1.267       .  A
C332        C364   1.482       .  S
O333       Al335   1.928       .  S
O334        C336   1.255       .  A
O334       Al335   1.869       .  S
Al335       O343   1.878       .  S
Al335       O345   1.910       .  S
Al335       O344   1.769       .  S
C336        O349   1.267       .  A
C336        C497   1.471       .  S
O337        C347   1.264       .  A
O337       Al339   1.912       .  S
O338        C351   1.271       .  A
O338       Al348   1.915       .  S
Al339       O352   1.911       .  S
Al339       O349   1.930       .  S
Al339       O344   1.769       .  S
O340        C347   1.264       .  A
O340       Al348   1.920       .  S
O341        C350   1.268       .  A
O341       Al348   1.952       .  S
O342       Al348   1.916       .  S
O343        C350   1.253       .  A
O344       Al348   1.774       .  S
O345        C346   1.261       .  A
C346        C557   1.477       .  S
C347       C1024   1.494       .  S
C350        C417   1.474       .  S
C351        O352   1.268       .  A
C351        C377   1.481       .  S
C353        C354   1.407       .  A
C353        C358   1.409       .  A
C353        F371   1.358       .  S
C354        C359   1.491       .  S
C354        C355   1.404       .  A
C355        C356   1.397       .  A
C355        F360   1.359       .  S
C356        C357   1.413       .  A
C356        F372   1.358       .  S
C357        C358   1.414       .  A
C358        F361   1.357       .  S
C359        C362   1.407       .  A
C359        C366   1.408       .  A
C362        C363   1.400       .  A
C362        F367   1.358       .  S
C363        C364   1.407       .  A
C363        F369   1.358       .  S
C364        C365   1.409       .  A
C365        C366   1.405       .  A
C365        F368   1.358       .  S
C366        F370   1.358       .  S
C373        C374   1.404       .  A
C373        C378   1.403       .  A
C373        F391   1.357       .  S
C374        C379   1.472       .  S
C374        C375   1.399       .  A
C375        C376   1.392       .  A
C375        F380   1.359       .  S
C376        C377   1.412       .  A
C376        F392   1.358       .  S
C377        C378   1.408       .  A
C378        F381   1.357       .  S
C379        C382   1.402       .  A
C379        C386   1.405       .  A
C382        C383   1.396       .  A
C382        F387   1.358       .  S
C383        C384   1.404       .  A
C383        F389   1.358       .  S
C384        C385   1.405       .  A
C385        C386   1.400       .  A
C385        F388   1.358       .  S
C386        F390   1.358       .  S
C393        C394   1.410       .  A
C393        C398   1.400       .  A
C393        F411   1.357       .  S
C394        C399   1.488   1_654  S
C394        C395   1.408   1_554  A
C395        C396   1.400       .  A
C395        F400   1.358       .  S
C396        C397   1.406   1_556  A
C396        F412   1.358       .  S
C397        C398   1.401       .  A
C398        F401   1.358       .  S
C399        C402   1.402       .  A
C399        C406   1.409       .  A
C402        C403   1.397       .  A
C402        F407   1.359   1_556  S
C403        C404   1.416       .  A
C403        F409   1.358       .  S
C404        C405   1.408       .  A
C405        C406   1.404       .  A
C405        F408   1.357       .  S
C406        F410   1.357       .  S
C413        C414   1.406   1_455  A
C413        C418   1.397       .  A
C413        F431   1.358   1_455  S
C414        C419   1.481       .  S
C414        C415   1.405   1_655  A
C415        C416   1.401       .  A
C415        F420   1.358   1_455  S
C416        C417   1.409       .  A
C416        F432   1.359       .  S
C417        C418   1.404       .  A
C418        F421   1.358       .  S
C419        C422   1.407       .  A
C419        C426   1.402       .  A
C422        C423   1.404       .  A
C422        F427   1.358       .  S
C423        C424   1.409       .  A
C423        F429   1.358       .  S
C424        C425   1.409       .  A
C425        C426   1.394       .  A
C425        F428   1.358       .  S
C426        F430   1.358       .  S
C433        C434   1.402       .  A
C433        C438   1.404       .  A
C433        F451   1.357       .  S
C434        C439   1.486       .  S
C434        C435   1.404       .  A
C435        C436   1.403       .  A
C435        F440   1.358       .  S
C436        C437   1.412       .  A
C436        F452   1.358       .  S
C437        C438   1.415       .  A
C438        F441   1.358       .  S
C439        C442   1.402       .  A
C439        C446   1.403       .  A
C442        C443   1.405       .  A
C442        F447   1.357       .  S
C443        C444   1.414       .  A
C443        F449   1.357       .  S
C444        C445   1.415       .  A
C445        C446   1.404       .  A
C445        F448   1.358       .  S
C446        F450   1.358       .  S
C453        C454   1.405       .  A
C453        C458   1.406       .  A
C453        F471   1.357       .  S
C454        C459   1.488       .  S
C454        C455   1.404       .  A
C455        C456   1.400       .  A
C455        F460   1.358       .  S
C456        C457   1.411       .  A
C456        F472   1.358       .  S
C457        C458   1.413       .  A
C458        F461   1.358       .  S
C459        C462   1.401       .  A
C459        C466   1.407       .  A
C462        C463   1.400       .  A
C462        F467   1.358       .  S
C463        C464   1.415       .  A
C463        F469   1.358       .  S
C464        C465   1.412       .  A
C465        C466   1.407       .  A
C465        F468   1.358       .  S
C466        F470   1.358       .  S
C473        C474   1.402       .  A
C473        C478   1.399       .  A
C473        F491   1.358       .  S
C474        C479   1.481       .  S
C474        C475   1.406       .  A
C475        C476   1.399       .  A
C475        F480   1.357       .  S
C476        C477   1.407       .  A
C476        F492   1.358       .  S
C477        C478   1.414       .  A
C478        F481   1.358       .  S
C479        C482   1.403       .  A
C479        C486   1.405       .  A
C482        C483   1.402       .  A
C482        F487   1.357       .  S
C483        C484   1.412       .  A
C483        F489   1.357       .  S
C484        C485   1.409       .  A
C485        C486   1.396       .  A
C485        F488   1.358       .  S
C486        F490   1.358       .  S
C493        C494   1.408       .  A
C493        C498   1.394       .  A
C493        F511   1.358       .  S
C494        C499   1.484       .  S
C494        C495   1.407       .  A
C495        C496   1.398       .  A
C495        F500   1.358       .  S
C496        C497   1.408       .  A
C496        F512   1.359       .  S
C497        C498   1.405       .  A
C498        F501   1.358       .  S
C499        C502   1.410       .  A
C499        C506   1.404       .  A
C502        C503   1.400       .  A
C502        F507   1.358       .  S
C503        C504   1.405       .  A
C503        F509   1.358       .  S
C504        C505   1.409       .  A
C505        C506   1.394       .  A
C505        F508   1.358       .  S
C506        F510   1.358       .  S
C513        C514   1.403       .  A
C513        C518   1.404       .  A
C513        F531   1.357       .  S
C514        C519   1.483   1_556  S
C514        C515   1.405       .  A
C515        C516   1.396       .  A
C515        F520   1.359       .  S
C516        C517   1.410       .  A
C516        F532   1.358       .  S
C517        C518   1.413       .  A
C518        F521   1.358       .  S
C519        C522   1.403       .  A
C519        C526   1.408       .  A
C522        C523   1.395       .  A
C522        F527   1.358       .  S
C523        C524   1.409       .  A
C523        F529   1.359       .  S
C524        C525   1.406       .  A
C525        C526   1.405       .  A
C525        F528   1.358       .  S
C526        F530   1.357       .  S
C533        C534   1.409       .  A
C533        C538   1.405       .  A
C533        F551   1.358       .  S
C534        C539   1.495       .  S
C534        C535   1.410       .  A
C535        C536   1.403       .  A
C535        F540   1.358       .  S
C536        C537   1.406       .  A
C536        F552   1.358       .  S
C537        C538   1.408       .  A
C538        F541   1.357       .  S
C539        C542   1.406       .  A
C539        C546   1.410       .  A
C542        C543   1.396       .  A
C542        F547   1.358       .  S
C543        C544   1.412       .  A
C543        F549   1.358       .  S
C544        C545   1.410       .  A
C545        C546   1.407       .  A
C545        F548   1.358       .  S
C546        F550   1.357       .  S
C553        C554   1.401       .  A
C553        C558   1.395       .  A
C553        F571   1.358       .  S
C554        C559   1.468       .  S
C554        C555   1.401       .  A
C555        C556   1.395       .  A
C555        F560   1.358       .  S
C556        C557   1.410       .  A
C556        F572   1.357       .  S
C557        C558   1.410       .  A
C558        F561   1.358       .  S
C559        C562   1.401       .  A
C559        C566   1.400       .  A
C562        C563   1.393       .  A
C562        F567   1.358       .  S
C563        C564   1.410       .  A
C563        F569   1.358       .  S
C564        C565   1.413       .  A
C565        C566   1.397       .  A
C565        F568   1.358       .  S
C566        F570   1.358       .  S
C573        C574   1.411       .  A
C573        C578   1.403       .  A
C573        F591   1.357       .  S
C574        C579   1.509       .  S
C574        C575   1.416       .  A
C575        C576   1.411       .  A
C575        F580   1.357       .  S
C576        C577   1.406       .  A
C576        F592   1.358       .  S
C577        C578   1.407       .  A
C578        F581   1.358   1_554  S
C579        C582   1.410       .  A
C579        C586   1.413       .  A
C582        C583   1.401       .  A
C582        F587   1.358       .  S
C583        C584   1.413       .  A
C583        F589   1.359       .  S
C584        C585   1.411       .  A
C585        C586   1.412       .  A
C585        F588   1.357       .  S
C586        F590   1.357       .  S
C593        C594   1.407       .  A
C593        C598   1.404       .  A
C593        F611   1.358       .  S
C594        C599   1.477       .  S
C594        C595   1.401       .  A
C595        C596   1.389       .  A
C595        F600   1.358       .  S
C596        C597   1.409       .  A
C596        F612   1.357       .  S
C597        C598   1.411       .  A
C598        F601   1.358       .  S
C599        C602   1.405       .  A
C599        C606   1.402       .  A
C602        C603   1.399       .  A
C602        F607   1.359       .  S
C603        C604   1.411       .  A
C603        F609   1.358   1_556  S
C604        C605   1.410       .  A
C605        C606   1.396       .  A
C605        F608   1.358       .  S
C606        F610   1.358       .  S
C613        C614   1.409       .  A
C613        C618   1.407       .  A
C613        F631   1.358       .  S
C614        C619   1.488   1_655  S
C614        C615   1.402       .  A
C615        C616   1.395       .  A
C615        F620   1.358       .  S
C616        C617   1.414       .  A
C616        F632   1.358       .  S
C617        C618   1.410       .  A
C618        F621   1.357       .  S
C619        C622   1.407       .  A
C619        C626   1.403       .  A
C622        C623   1.401       .  A
C622        F627   1.358       .  S
C623        C624   1.410       .  A
C623        F629   1.358       .  S
C624        C625   1.415       .  A
C625        C626   1.401       .  A
C625        F628   1.358       .  S
C626        F630   1.358       .  S
C633        C634   1.410       .  A
C633        C638   1.401       .  A
C633        F651   1.358       .  S
C634        C639   1.488       .  S
C634        C635   1.410       .  A
C635        C636   1.394       .  A
C635        F640   1.357       .  S
C636        C637   1.398       .  A
C636        F652   1.356       .  S
C637        C638   1.404       .  A
C638        F641   1.358       .  S
C639        C642   1.408       .  A
C639        C646   1.408       .  A
C642        C643   1.402       .  A
C642        F647   1.358       .  S
C643        C644   1.409       .  A
C643        F649   1.358       .  S
C644        C645   1.407       .  A
C645        C646   1.395       .  A
C645        F648   1.359       .  S
C646        F650   1.358       .  S
C653        C654   1.410       .  A
C653        C658   1.406       .  A
C653        F671   1.357       .  S
C654        C659   1.501       .  S
C654        C655   1.408       .  A
C655        C656   1.406       .  A
C655        F660   1.357       .  S
C656        C657   1.411       .  A
C656        F672   1.358       .  S
C657        C658   1.410       .  A
C658        F661   1.358       .  S
C659        C662   1.409       .  A
C659        C666   1.410       .  A
C662        C663   1.406       .  A
C662        F667   1.358       .  S
C663        C664   1.408       .  A
C663        F669   1.358       .  S
C664        C665   1.410       .  A
C665        C666   1.407       .  A
C665        F668   1.358       .  S
C666        F670   1.358       .  S
C673        C674   1.403       .  A
C673        C678   1.398       .  A
C673        F691   1.358       .  S
C674        C679   1.477   1_655  S
C674        C675   1.403       .  A
C675        C676   1.396       .  A
C675        F680   1.358       .  S
C676        C677   1.409       .  A
C676        F692   1.358       .  S
C677        C678   1.411       .  A
C678        F681   1.358       .  S
C679        C682   1.406       .  A
C679        C686   1.403       .  A
C682        C683   1.398       .  A
C682        F687   1.358       .  S
C683        C684   1.406       .  A
C683        F689   1.358       .  S
C684        C685   1.407       .  A
C685        C686   1.397       .  A
C685        F688   1.358       .  S
C686        F690   1.358       .  S
C693        C694   1.400       .  A
C693        C698   1.391       .  A
C693        F711   1.358       .  S
C694        C699   1.465       .  S
C694        C695   1.402       .  A
C695        C696   1.400       .  A
C695        F700   1.358       .  S
C696        C697   1.410       .  A
C696        F712   1.358       .  S
C697        C698   1.407       .  A
C698        F701   1.358       .  S
C699        C702   1.399       .  A
C699        C706   1.401       .  A
C702        C703   1.398       .  A
C702        F707   1.358       .  S
C703        C704   1.413       .  A
C703        F709   1.358       .  S
C704        C705   1.409       .  A
C705        C706   1.393       .  A
C705        F708   1.356       .  S
C706        F710   1.359       .  S
C713        C714   1.403       .  A
C713        C718   1.403       .  A
C713        F731   1.358       .  S
C714        C719   1.474   1_554  S
C714        C715   1.401       .  A
C715        C716   1.394       .  A
C715        F720   1.358       .  S
C716        C717   1.412       .  A
C716        F732   1.358       .  S
C717        C718   1.412       .  A
C718        F721   1.358       .  S
C719        C722   1.399       .  A
C719        C726   1.406       .  A
C722        C723   1.389       .  A
C722        F727   1.358       .  S
C723        C724   1.407       .  A
C723        F729   1.356       .  S
C724        C725   1.409       .  A
C725        C726   1.407       .  A
C725        F728   1.358       .  S
C726        F730   1.357       .  S
C733        C734   1.410       .  A
C733        C738   1.403       .  A
C733        F751   1.358       .  S
C734        C739   1.482       .  S
C734        C735   1.401       .  A
C735        C736   1.389       .  A
C735        F740   1.358       .  S
C736        C737   1.412       .  A
C736        F752   1.358       .  S
C737        C738   1.405       .  A
C738        F741   1.358       .  S
C739        C742   1.407       .  A
C739        C746   1.405       .  A
C742        C743   1.401       .  A
C742        F747   1.358       .  S
C743        C744   1.408       .  A
C743        F749   1.358       .  S
C744        C745   1.408       .  A
C745        C746   1.393       .  A
C745        F748   1.358       .  S
C746        F750   1.358       .  S
C753        C754   1.407       .  A
C753        C758   1.404       .  A
C753        F771   1.358       .  S
C754        C759   1.498       .  S
C754        C755   1.408       .  A
C755        C756   1.409       .  A
C755        F760   1.358       .  S
C756        C757   1.412       .  A
C756        F772   1.358       .  S
C757        C758   1.411       .  A
C758        F761   1.358       .  S
C759        C762   1.404       .  A
C759        C766   1.410       .  A
C762        C763   1.399       .  A
C762        F767   1.358       .  S
C763        C764   1.414       .  A
C763        F769   1.358       .  S
C764        C765   1.413       .  A
C765        C766   1.411       .  A
C765        F768   1.358       .  S
C766        F770   1.357       .  S
C773        C774   1.407       .  A
C773        C778   1.408       .  A
C773        F791   1.358       .  S
C774        C779   1.494       .  S
C774        C775   1.405       .  A
C775        C776   1.404       .  A
C775        F780   1.358       .  S
C776        C777   1.410       .  A
C776        F792   1.357       .  S
C777        C778   1.413       .  A
C778        F781   1.358       .  S
C779        C782   1.406       .  A
C779        C786   1.406       .  A
C782        C783   1.407       .  A
C782        F787   1.357       .  S
C783        C784   1.412       .  A
C783        F789   1.358       .  S
C784        C785   1.411       .  A
C785        C786   1.402       .  A
C785        F788   1.358       .  S
C786        F790   1.358       .  S
C793        C794   1.412       .  A
C793        C798   1.398   1_556  A
C793        F811   1.358       .  S
C794        C799   1.498       .  S
C794        C795   1.412       .  A
C795        C796   1.403   1_556  A
C795        F800   1.357       .  S
C796        C797   1.406       .  A
C796        F812   1.358       .  S
C797        C798   1.404       .  A
C798        F801   1.358       .  S
C799        C802   1.413       .  A
C799        C806   1.407       .  A
C802        C803   1.407       .  A
C802        F807   1.358       .  S
C803        C804   1.411       .  A
C803        F809   1.358       .  S
C804        C805   1.412       .  A
C805        C806   1.392       .  A
C805        F808   1.358       .  S
C806        F810   1.358       .  S
C813        C814   1.402       .  A
C813        C818   1.399       .  A
C813        F831   1.358       .  S
C814        C819   1.476       .  S
C814        C815   1.404       .  A
C815        C816   1.397       .  A
C815        F820   1.359       .  S
C816        C817   1.411       .  A
C816        F832   1.358       .  S
C817        C818   1.411       .  A
C818        F821   1.358       .  S
C819        C822   1.406       .  A
C819        C826   1.401       .  A
C822        C823   1.405       .  A
C822        F827   1.357       .  S
C823        C824   1.406       .  A
C823        F829   1.357       .  S
C824        C825   1.409       .  A
C825        C826   1.391       .  A
C825        F828   1.356       .  S
C826        F830   1.359       .  S
C833        C834   1.407       .  A
C833        C838   1.406       .  A
C833        F851   1.358       .  S
C834        C839   1.474       .  S
C834        C835   1.399       .  A
C835        C836   1.390       .  A
C835        F840   1.358       .  S
C836        C837   1.408       .  A
C836        F852   1.358       .  S
C837        C838   1.409       .  A
C838        F841   1.358       .  S
C839        C842   1.401       .  A
C839        C846   1.402       .  A
C842        C843   1.398       .  A
C842        F847   1.358       .  S
C843        C844   1.411       .  A
C843        F849   1.358       .  S
C844        C845   1.412       .  A
C845        C846   1.402       .  A
C845        F848   1.358       .  S
C846        F850   1.358       .  S
C853        C854   1.408       .  A
C853        C858   1.400       .  A
C853        F871   1.357       .  S
C854        C859   1.490   1_565  S
C854        C855   1.404       .  A
C855        C856   1.402       .  A
C855        F860   1.358       .  S
C856        C857   1.416       .  A
C856        F872   1.358       .  S
C857        C858   1.406       .  A
C858        F861   1.358       .  S
C859        C862   1.406       .  A
C859        C866   1.408       .  A
C862        C863   1.398       .  A
C862        F867   1.358       .  S
C863        C864   1.408       .  A
C863        F869   1.358       .  S
C864        C865   1.409       .  A
C865        C866   1.404       .  A
C865        F868   1.358       .  S
C866        F870   1.358       .  S
C873        C874   1.407       .  A
C873        C878   1.401       .  A
C873        F891   1.357       .  S
C874        C879   1.495       .  S
C874        C875   1.411       .  A
C875        C876   1.402       .  A
C875        F880   1.358       .  S
C876        C877   1.406       .  A
C876        F892   1.358       .  S
C877        C878   1.407       .  A
C878        F881   1.358       .  S
C879        C882   1.409       .  A
C879        C886   1.409       .  A
C882        C883   1.403       .  A
C882        F887   1.358       .  S
C883        C884   1.410       .  A
C883        F889   1.358       .  S
C884        C885   1.408       .  A
C885        C886   1.400       .  A
C885        F888   1.358       .  S
C886        F890   1.358       .  S
C893        C894   1.408       .  A
C893        C898   1.401       .  A
C893        F911   1.358       .  S
C894        C899   1.493       .  S
C894        C895   1.408       .  A
C895        C896   1.400       .  A
C895        F900   1.358       .  S
C896        C897   1.409       .  A
C896        F912   1.357       .  S
C897        C898   1.412       .  A
C898        F901   1.358       .  S
C899        C902   1.410   1_545  A
C899        C906   1.408   1_545  A
C902        C903   1.402       .  A
C902        F907   1.358   1_565  S
C903        C904   1.408       .  A
C903        F909   1.358       .  S
C904        C905   1.408       .  A
C905        C906   1.399       .  A
C905        F908   1.358       .  S
C906        F910   1.357   1_565  S
C913        C914   1.405       .  A
C913        C918   1.402       .  A
C913        F931   1.358       .  S
C914        C919   1.487       .  S
C914        C915   1.403       .  A
C915        C916   1.403       .  A
C915        F920   1.357       .  S
C916        C917   1.411   1_556  A
C916        F932   1.357   1_556  S
C917        C918   1.413   1_554  A
C918        F921   1.358       .  S
C919        C922   1.407       .  A
C919        C926   1.405       .  A
C922        C923   1.407       .  A
C922        F927   1.358       .  S
C923        C924   1.410       .  A
C923        F929   1.358       .  S
C924        C925   1.407       .  A
C925        C926   1.397       .  A
C925        F928   1.358       .  S
C926        F930   1.358       .  S
C933        C934   1.404       .  A
C933        C938   1.405       .  A
C933        F951   1.358       .  S
C934        C939   1.483       .  S
C934        C935   1.403       .  A
C935        C936   1.399       .  A
C935        F940   1.358       .  S
C936        C937   1.412       .  A
C936        F952   1.358       .  S
C937        C938   1.411       .  A
C938        F941   1.357       .  S
C939        C942   1.405       .  A
C939        C946   1.405       .  A
C942        C943   1.401       .  A
C942        F947   1.357       .  S
C943        C944   1.406       .  A
C943        F949   1.358       .  S
C944        C945   1.407       .  A
C945        C946   1.402       .  A
C945        F948   1.358       .  S
C946        F950   1.358       .  S
C953        C954   1.401       .  A
C953        C958   1.394       .  A
C953        F971   1.358   1_556  S
C954        C959   1.477       .  S
C954        C955   1.407       .  A
C955        C956   1.403       .  A
C955        F960   1.358       .  S
C956        C957   1.406       .  A
C956        F972   1.357       .  S
C957        C958   1.410       .  A
C958        F961   1.359   1_556  S
C959        C962   1.404       .  A
C959        C966   1.401       .  A
C962        C963   1.397       .  A
C962        F967   1.358       .  S
C963        C964   1.411       .  A
C963        F969   1.358       .  S
C964        C965   1.412       .  A
C965        C966   1.399       .  A
C965        F968   1.358       .  S
C966        F970   1.358       .  S
C973        C974   1.406       .  A
C973        C978   1.401       .  A
C973        F991   1.358       .  S
C974        C979   1.486       .  S
C974        C975   1.406       .  A
C975        C976   1.398       .  A
C975        F980   1.358       .  S
C976        C977   1.409       .  A
C976        F992   1.358       .  S
C977        C978   1.410       .  A
C978        F981   1.358       .  S
C979        C982   1.404       .  A
C979        C986   1.406       .  A
C982        C983   1.398       .  A
C982        F987   1.358       .  S
C983        C984   1.411       .  A
C983        F989   1.357       .  S
C984        C985   1.415       .  A
C985        C986   1.403       .  A
C985        F988   1.358       .  S
C986        F990   1.358       .  S
C993        C994   1.405       .  A
C993        C998   1.395       .  A
C993       F1011   1.358       .  S
C994        C999   1.485       .  S
C994        C995   1.407       .  A
C995        C996   1.400   1_554  A
C995       F1000   1.358   1_554  S
C996        C997   1.409   1_556  A
C996       F1012   1.358       .  S
C997        C998   1.412       .  A
C998       F1001   1.359       .  S
C999       C1002   1.410       .  A
C999       C1006   1.405       .  A
C1002      C1003   1.401       .  A
C1002      F1007   1.357       .  S
C1003      C1004   1.402       .  A
C1003      F1009   1.357       .  S
C1004      C1005   1.407       .  A
C1005      C1006   1.396       .  A
C1005      F1008   1.356       .  S
C1006      F1010   1.358       .  S
C1013      C1014   1.402       .  A
C1013      C1018   1.392       .  A
C1013      F1031   1.358       .  S
C1014      C1019   1.493       .  S
C1014      C1015   1.412       .  A
C1015      C1016   1.410       .  A
C1015      F1020   1.357       .  S
C1016      C1017   1.408       .  A
C1016      F1032   1.357       .  S
C1017      C1018   1.414       .  A
C1018      F1021   1.359       .  S
C1019      C1022   1.407       .  A
C1019      C1026   1.407       .  A
C1022      C1023   1.406       .  A
C1022      F1027   1.357       .  S
C1023      C1024   1.412       .  A
C1023      F1029   1.357       .  S
C1024      C1025   1.413       .  A
C1025      C1026   1.397       .  A
C1025      F1028   1.358       .  S
C1026      F1030   1.359       .  S
C1033      C1034   1.406       .  A
C1033      C1038   1.409       .  A
C1033      F1051   1.357       .  S
C1034      C1039   1.493       .  S
C1034      C1035   1.403       .  A
C1035      C1036   1.403       .  A
C1035      F1040   1.358       .  S
C1036      C1037   1.416       .  A
C1036      F1052   1.356       .  S
C1037      C1038   1.413       .  A
C1038      F1041   1.357       .  S
C1039      C1042   1.402       .  A
C1039      C1046   1.407       .  A
C1042      C1043   1.401       .  A
C1042      F1047   1.358       .  S
C1043      C1044   1.416       .  A
C1043      F1049   1.358       .  S
C1044      C1045   1.414       .  A
C1045      C1046   1.411       .  A
C1045      F1048   1.357       .  S
C1046      F1050   1.357       .  S
C1053      C1054   1.410       .  A
C1053      C1058   1.405       .  A
C1053      F1071   1.358       .  S
C1054      C1059   1.493       .  S
C1054      C1055   1.407       .  A
C1055      C1056   1.398       .  A
C1055      F1060   1.358       .  S
C1056      C1057   1.405       .  A
C1056      F1072   1.358       .  S
C1057      C1058   1.408       .  A
C1058      F1061   1.358       .  S
C1059      C1062   1.407       .  A
C1059      C1066   1.407       .  A
C1062      C1063   1.406       .  A
C1062      F1067   1.357       .  S
C1063      C1064   1.412       .  A
C1063      F1069   1.358       .  S
C1064      C1065   1.410       .  A
C1065      C1066   1.399       .  A
C1065      F1068   1.358       .  S
C1066      F1070   1.358       .  S
C1073      C1074   1.401       .  A
C1073      C1078   1.390       .  A
C1073      F1091   1.359       .  S
C1074      C1079   1.484       .  S
C1074      C1075   1.408       .  A
C1075      C1076   1.408       .  A
C1075      F1080   1.357       .  S
C1076      C1077   1.411       .  A
C1076      F1092   1.357       .  S
C1077      C1078   1.414       .  A
C1078      F1081   1.358       .  S
C1079      C1082   1.408       .  A
C1079      C1086   1.405       .  A
C1082      C1083   1.398       .  A
C1082      F1087   1.358       .  S
C1083      C1084   1.406       .  A
C1083      F1089   1.358       .  S
C1084      C1085   1.409       .  A
C1085      C1086   1.401       .  A
C1085      F1088   1.358       .  S
C1086      F1090   1.357       .  S
C1093      C1094   1.410       .  A
C1093      C1098   1.398       .  A
C1093      F1111   1.358       .  S
C1094      C1099   1.483       .  S
C1094      C1095   1.407       .  A
C1095      C1096   1.394       .  A
C1095      F1100   1.358       .  S
C1096      C1097   1.404       .  A
C1096      F1112   1.358       .  S
C1097      C1098   1.403       .  A
C1098      F1101   1.358       .  S
C1099      C1102   1.405       .  A
C1099      C1106   1.407       .  A
C1102      C1103   1.391       .  A
C1102      F1107   1.358       .  S
C1103      C1104   1.407       .  A
C1103      F1109   1.358       .  S
C1104      C1105   1.412       .  A
C1105      C1106   1.401       .  A
C1105      F1108   1.358       .  S
C1106      F1110   1.358       .  S
C1113      C1114   1.406       .  A
C1113      C1118   1.398       .  A
C1113      F1131   1.358       .  S
C1114      C1119   1.482       .  S
C1114      C1115   1.405       .  A
C1115      C1116   1.395       .  A
C1115      F1120   1.358       .  S
C1116      C1117   1.410       .  A
C1116      F1132   1.358       .  S
C1117      C1118   1.408       .  A
C1118      F1121   1.358       .  S
C1119      C1122   1.406       .  A
C1119      C1126   1.407       .  A
C1122      C1123   1.395       .  A
C1122      F1127   1.357       .  S
C1123      C1124   1.408       .  A
C1123      F1129   1.358       .  S
C1124      C1125   1.409       .  A
C1125      C1126   1.396       .  A
C1125      F1128   1.359       .  S
C1126      F1130   1.358       .  S
C1133      C1134   1.409       .  A
C1133      C1138   1.405       .  A
C1133      F1151   1.358   1_556  S
C1134      C1139   1.492       .  S
C1134      C1135   1.407       .  A
C1135      C1136   1.400       .  A
C1135      F1140   1.358       .  S
C1136      C1137   1.408       .  A
C1136      F1152   1.358       .  S
C1137      C1138   1.408       .  A
C1138      F1141   1.358   1_556  S
C1139      C1142   1.409   1_556  A
C1139      C1146   1.403       .  A
C1142      C1143   1.409       .  A
C1142      F1147   1.357       .  S
C1143      C1144   1.411       .  A
C1143      F1149   1.357       .  S
C1144      C1145   1.416       .  A
C1145      C1146   1.395   1_554  A
C1145      F1148   1.359   1_554  S
C1146      F1150   1.358       .  S
C1153      C1154   1.404       .  A
C1153      C1158   1.396       .  A
C1153      F1171   1.358       .  S
C1154      C1159   1.472   1_545  S
C1154      C1155   1.402       .  A
C1155      C1156   1.392       .  A
C1155      F1160   1.358       .  S
C1156      C1157   1.409       .  A
C1156      F1172   1.359       .  S
C1157      C1158   1.406       .  A
C1158      F1161   1.358       .  S
C1159      C1162   1.401       .  A
C1159      C1166   1.405       .  A
C1162      C1163   1.393       .  A
C1162      F1167   1.359       .  S
C1163      C1164   1.410       .  A
C1163      F1169   1.359       .  S
C1164      C1165   1.405       .  A
C1165      C1166   1.397       .  A
C1165      F1168   1.358       .  S
C1166      F1170   1.358       .  S
C1173      C1174   1.409       .  A
C1173      C1178   1.396       .  A
C1173      F1191   1.358       .  S
C1174      C1179   1.491       .  S
C1174      C1175   1.407       .  A
C1175      C1176   1.402       .  A
C1175      F1180   1.358       .  S
C1176      C1177   1.410       .  A
C1176      F1192   1.358       .  S
C1177      C1178   1.409       .  A
C1178      F1181   1.359       .  S
C1179      C1182   1.411       .  A
C1179      C1186   1.406       .  A
C1182      C1183   1.400       .  A
C1182      F1187   1.358       .  S
C1183      C1184   1.405       .  A
C1183      F1189   1.358       .  S
C1184      C1185   1.410       .  A
C1185      C1186   1.399       .  A
C1185      F1188   1.358       .  S
C1186      F1190   1.358       .  S
C1193      C1194   1.407       .  A
C1193      C1198   1.408       .  A
C1193      F1211   1.357       .  S
C1194      C1199   1.498       .  S
C1194      C1195   1.407       .  A
C1195      C1196   1.405       .  A
C1195      F1200   1.358       .  S
C1196      C1197   1.412       .  A
C1196      F1212   1.357       .  S
C1197      C1198   1.415       .  A
C1198      F1201   1.358       .  S
C1199      C1202   1.409       .  A
C1199      C1206   1.408       .  A
C1202      C1203   1.408       .  A
C1202      F1207   1.357       .  S
C1203      C1204   1.409       .  A
C1203      F1209   1.358       .  S
C1204      C1205   1.408       .  A
C1205      C1206   1.404       .  A
C1205      F1208   1.358       .  S
C1206      F1210   1.357       .  S
C1213      C1214   1.406       .  A
C1213      C1218   1.406       .  A
C1213      F1231   1.357       .  S
C1214      C1219   1.485       .  S
C1214      C1215   1.401       .  A
C1215      C1216   1.397       .  A
C1215      F1220   1.359       .  S
C1216      C1217   1.416       .  A
C1216      F1232   1.357       .  S
C1217      C1218   1.412       .  A
C1218      F1221   1.359       .  S
C1219      C1222   1.405       .  A
C1219      C1226   1.404       .  A
C1222      C1223   1.407       .  A
C1222      F1227   1.358       .  S
C1223      C1224   1.411       .  A
C1223      F1229   1.358       .  S
C1224      C1225   1.409       .  A
C1225      C1226   1.398       .  A
C1225      F1228   1.358       .  S
C1226      F1230   1.358       .  S
C1233      C1234   1.408       .  A
C1233      C1238   1.403       .  A
C1233      F1251   1.358       .  S
C1234      C1239   1.490   1_545  S
C1234      C1235   1.404       .  A
C1235      C1236   1.402       .  A
C1235      F1240   1.358       .  S
C1236      C1237   1.411       .  A
C1236      F1252   1.358       .  S
C1237      C1238   1.408       .  A
C1238      F1241   1.358       .  S
C1239      C1242   1.403       .  A
C1239      C1246   1.410       .  A
C1242      C1243   1.399       .  A
C1242      F1247   1.358       .  S
C1243      C1244   1.412       .  A
C1243      F1249   1.358       .  S
C1244      C1245   1.408       .  A
C1245      C1246   1.406       .  A
C1245      F1248   1.358       .  S
C1246      F1250   1.358   1_565  S
C1253      C1254   1.405       .  A
C1253      C1258   1.400       .  A
C1253      F1271   1.358       .  S
C1254      C1259   1.485       .  S
C1254      C1255   1.405       .  A
C1255      C1256   1.401       .  A
C1255      F1260   1.357       .  S
C1256      C1257   1.410       .  A
C1256      F1272   1.358       .  S
C1257      C1258   1.411       .  A
C1258      F1261   1.358       .  S
C1259      C1262   1.404       .  A
C1259      C1266   1.403       .  A
C1262      C1263   1.401       .  A
C1262      F1267   1.358       .  S
C1263      C1264   1.413       .  A
C1263      F1269   1.358       .  S
C1264      C1265   1.415       .  A
C1265      C1266   1.402       .  A
C1265      F1268   1.357       .  S
C1266      F1270   1.358       .  S
C1273      C1274   1.404       .  A
C1273      C1278   1.400       .  A
C1273      F1291   1.358       .  S
C1274      C1279   1.480       .  S
C1274      C1275   1.402       .  A
C1275      C1276   1.402       .  A
C1275      F1280   1.358       .  S
C1276      C1277   1.413       .  A
C1276      F1292   1.358   1_554  S
C1277      C1278   1.410       .  A
C1278      F1281   1.358       .  S
C1279      C1282   1.405       .  A
C1279      C1286   1.402       .  A
C1282      C1283   1.402       .  A
C1282      F1287   1.357       .  S
C1283      C1284   1.407       .  A
C1283      F1289   1.357       .  S
C1284      C1285   1.413       .  A
C1285      C1286   1.399       .  A
C1285      F1288   1.358       .  S
C1286      F1290   1.358       .  S
C1293      C1294   1.412       .  A
C1293      C1298   1.400       .  A
C1293      F1311   1.357       .  S
C1294      C1299   1.479       .  S
C1294      C1295   1.400       .  A
C1295      C1296   1.391       .  A
C1295      F1300   1.358       .  S
C1296      C1297   1.410       .  A
C1296      F1312   1.358       .  S
C1297      C1298   1.399       .  A
C1298      F1301   1.357       .  S
C1299      C1302   1.402       .  A
C1299      C1306   1.408       .  A
C1302      C1303   1.395       .  A
C1302      F1307   1.358       .  S
C1303      C1304   1.412       .  A
C1303      F1309   1.359       .  S
C1304      C1305   1.406       .  A
C1305      C1306   1.398       .  A
C1305      F1308   1.358       .  S
C1306      F1310   1.358       .  S
