geometry optimzed in LAMMPS
_audit_creation_date              2020-12-01 
_audit_creation_method            'lammps2cif' 
_symmetry_space_group_name_H-M    'P1' 
_symmetry_Int_Tables_number       1 
_symmetry_cell_setting            triclinic 
loop_ 
_symmetry_equiv_pos_as_xyz 
  x,y,z 
_cell_length_a                    38.51364264 
_cell_length_b                    38.56861189639949 
_cell_length_c                    42.489030314272334 
_cell_angle_alpha                 90.16855776252292 
_cell_angle_beta                  89.65853743763007 
_cell_angle_gamma                 89.45069320670372 
loop_ 
_atom_site_label 
_atom_site_type_symbol 
_atom_site_fract_x 
_atom_site_fract_y 
_atom_site_fract_z 
_atom_site_charge 
O1          O  0.39742781  0.87074804  0.47221753    -0.82900
C2          C  0.44097649  0.87845096  0.34704014     0.96400
O3          O  0.43523711  0.90460992  0.36449476    -0.72100
O4          O  0.37340319  0.90179718  0.38853409    -0.75600
Al5        Al  0.41744174  0.90819935  0.40678609     1.49000
C6          C  0.34786998  0.88743261  0.40127740     0.91700
O7          O  0.38419953  0.80944131  0.40589763    -0.81900
O8          O  0.47696529  0.82890890  0.44312518    -0.75400
Al9        Al  0.39254540  0.84128190  0.43796620     1.90100
O10         O  0.43844482  0.79685238  0.39608785    -0.74500
O11         O  0.49207602  0.88045439  0.40049190    -0.74300
O12         O  0.44894002  0.84944893  0.35874367    -0.80000
O13         O  0.46137510  0.92128491  0.42318467    -0.78200
O14         O  0.42385393  0.86364371  0.41538643    -1.14300
O15         O  0.39703311  0.92033894  0.44735160    -0.73500
C16         C  0.39246736  0.90291956  0.47226521     0.97200
C17         C  0.40654165  0.78920911  0.39442998     0.93600
Al18       Al  0.46133375  0.84081914  0.40104115     1.55600
O19         O  0.35226842  0.86626837  0.42347328    -0.78200
C20         C  0.48924417  0.91149052  0.41008253     0.97700
C21         C  0.45780134  0.81247128  0.46230648     0.92600
O22         O  0.42529069  0.81135562  0.45822547    -0.83500
O23         O  0.38488678  0.63973728  0.04227839    -0.82900
C24         C  0.42785274  0.63079239  0.16643453     0.96400
O25         O  0.40558237  0.61817184  0.14830572    -0.72100
O26         O  0.36102261  0.61656358  0.10263424    -0.75600
Al27       Al  0.41042982  0.61006565  0.10496864     1.49000
C28         C  0.34242671  0.64373677  0.10242551     0.91700
O29         O  0.39950161  0.72185323  0.09115311    -0.81900
O30         O  0.46970510  0.70384143  0.07971882    -0.75400
Al31       Al  0.39549225  0.67815631  0.06955141     1.90100
O32         O  0.42834314  0.70854512  0.13360686    -0.74500
O33         O  0.49036890  0.63974750  0.10126429    -0.74300
O34         O  0.45194926  0.64961936  0.15569933    -0.80000
O35         O  0.45705534  0.59502521  0.11057726    -0.78200
O36         O  0.42128100  0.65380785  0.09656082    -1.14300
O37         O  0.41381571  0.59577749  0.06214935    -0.73500
C38         C  0.39637456  0.60900059  0.04015674     0.97200
C39         C  0.40875711  0.72898299  0.11891365     0.93600
Al40       Al  0.45717073  0.67377963  0.11567739     1.55600
O41         O  0.35446749  0.67209094  0.09321636    -0.78200
C42         C  0.48694899  0.60782282  0.10741029     0.97700
C43         C  0.45924050  0.70578564  0.05134246     0.92600
O44         O  0.43385190  0.68771878  0.04272862    -0.83500
O45         O  0.29386469  0.57443266  0.29796518    -0.82900
C46         C  0.36009377  0.57029108  0.41562910     0.96400
O47         O  0.33982322  0.54641583  0.40595508    -0.72100
O48         O  0.27877518  0.56404441  0.38309203    -0.75600
Al49       Al  0.31651974  0.53897897  0.36518562     1.49000
C50         C  0.26171598  0.59025545  0.37470982     0.91700
O51         O  0.32772347  0.64522769  0.35207007    -0.81900
O52         O  0.39137314  0.57710954  0.30992423    -0.75400
Al53       Al  0.31272890  0.60751945  0.32586180     1.90100
O54         O  0.38201858  0.63200290  0.34775154    -0.74500
O55         O  0.39481415  0.53832804  0.36144641    -0.74300
O56         O  0.37455572  0.59080955  0.39658140    -0.80000
O57         O  0.35164969  0.50523181  0.35155988    -0.78200
O58         O  0.33639805  0.57610298  0.34779909    -1.14300
O59         O  0.28962892  0.52737380  0.32708841    -0.73500
C60         C  0.28340335  0.54375967  0.30158291     0.97200
C61         C  0.35904515  0.65366365  0.35490203     0.93600
Al62       Al  0.38145587  0.58351002  0.35331744     1.55600
O63         O  0.27173242  0.60786978  0.35152705    -0.78200
C64         C  0.38329038  0.50849541  0.35846237     0.97700
C65         C  0.37878945  0.59773562  0.28970859     0.92600
O66         O  0.34999199  0.61348283  0.29491891    -0.83500
O67         O  0.18957574  0.57161926  0.20305790    -0.82900
C68         C  0.11715407  0.57825384  0.09340631     0.96400
O69         O  0.14713938  0.56839306  0.10155869    -0.72100
O70         O  0.20160713  0.57432153  0.13847352    -0.75600
Al71       Al  0.15968281  0.54753761  0.14065151     1.49000
C72         C  0.20738431  0.60597393  0.14393924     0.91700
O73         O  0.12881569  0.64658590  0.18590120    -0.81900
O74         O  0.07794095  0.59161385  0.20142745    -0.75400
Al75       Al  0.15644784  0.60541039  0.19079585     1.90100
O76         O  0.09164540  0.63207753  0.15010823    -0.74500
O77         O  0.07868593  0.53639072  0.16202647    -0.74300
O78         O  0.09250130  0.58041409  0.11298153    -0.80000
O79         O  0.12274933  0.51425609  0.13583709    -0.78200
O80         O  0.13489064  0.57880229  0.16301957    -1.14300
O81         O  0.17629533  0.52350989  0.17827006    -0.73500
C82         C  0.19279433  0.53932415  0.19979610     0.97200
C83         C  0.10615744  0.65495555  0.16618542     0.93600
Al84       Al  0.08926191  0.58425946  0.15731940     1.55600
O85         O  0.18656376  0.62392243  0.16018953    -0.78200
C86         C  0.09157594  0.51249883  0.14517899     0.97700
C87         C  0.09621344  0.59273114  0.22613947     0.92600
O88         O  0.12874364  0.58981202  0.22438226    -0.83500
O89         O  0.07675859  0.86709648  0.04005469    -0.82900
C90         C  0.03566883  0.88476972  0.16479095     0.96400
O91         O  0.04179975  0.90928953  0.14591731    -0.72100
O92         O  0.10282567  0.90344344  0.12093917    -0.75600
Al93       Al  0.05796364  0.90966993  0.10342608     1.49000
C94         C  0.12761646  0.88596923  0.10963986     0.91700
O95         O  0.08942656  0.80920431  0.10977654    -0.81900
O96         O  0.99721655  0.83002499  0.07180823    -0.75400
Al97       Al  0.08153334  0.83942009  0.07577111     1.90100
O98         O  0.03512616  0.79938543  0.11978085    -0.74500
O99         O  0.98346685  0.88385578  0.11249743    -0.74300
O100        O  0.02658402  0.85534471  0.15473017    -0.80000
O101        O  0.01328702  0.92275962  0.08769479    -0.78200
O102        O  0.05096675  0.86459154  0.09732104    -1.14300
O103        O  0.07691623  0.91841182  0.06187471    -0.73500
C104        C  0.08088450  0.89930163  0.03784209     0.97200
C105        C  0.06648203  0.79105756  0.12306152     0.93600
Al106      Al  0.01343208  0.84393356  0.11309810     1.55600
O107        O  0.12225048  0.86332386  0.08890656    -0.78200
C108        C  0.98579371  0.91421423  0.10185505     0.97700
C109        C  0.01575376  0.81148913  0.05332838     0.92600
O110        O  0.04825423  0.80942967  0.05691575    -0.83500
O111        O  0.08172643  0.64791088  0.46834413    -0.82900
C112        C  0.04069651  0.62540382  0.34938821     0.96400
O113        O  0.05667060  0.60955554  0.37085954    -0.72100
O114        O  0.09957516  0.60950150  0.41830959    -0.75600
Al115      Al  0.04982187  0.61064885  0.41446673     1.49000
C116        C  0.12299144  0.63163086  0.41386805     0.91700
O117        O  0.07676658  0.72120881  0.41073895    -0.81900
O118        O  0.99938014  0.71083219  0.42635234    -0.75400
Al119      Al  0.07522661  0.68145732  0.43680144     1.90100
O120        O  0.04174225  0.70989529  0.37233813    -0.74500
O121        O  0.97403730  0.64939693  0.40712466    -0.74300
O122        O  0.01868905  0.64926847  0.35543572    -0.80000
O123        O  0.00220748  0.60026029  0.40935576    -0.78200
O124        O  0.04502985  0.65680639  0.41457300    -1.14300
O125        O  0.04437523  0.60707349  0.45941615    -0.73500
C126        C  0.06670934  0.62085070  0.47718170     0.97200
C127        C  0.06492567  0.72844613  0.38410761     0.93600
Al128      Al  0.01139462  0.67794045  0.39249131     1.55600
O129        O  0.11466947  0.66347394  0.41382131    -0.78200
C130        C  0.97396441  0.61674991  0.40743936     0.97700
C131        C  0.01160305  0.71610330  0.45377515     0.92600
O132        O  0.03956328  0.70158226  0.46230514    -0.83500
O133        O  0.29012274  0.94501066  0.21254077    -0.82900
C134        C  0.36422705  0.95011324  0.10088380     0.96400
O135        O  0.33275372  0.95372807  0.10930406    -0.72100
O136        O  0.27591883  0.94796463  0.14456975    -0.75600
Al137      Al  0.31830184  0.97270754  0.14902725     1.49000
C138        C  0.26699714  0.91720698  0.14962266     0.91700
O139        O  0.34573362  0.87043469  0.18154452    -0.81900
O140        O  0.39928440  0.92252084  0.20539005    -0.75400
Al141      Al  0.32000323  0.91027903  0.19506064     1.90100
O142        O  0.38657584  0.89059266  0.15044182    -0.74500
O143        O  0.39548691  0.98386854  0.17684462    -0.74300
O144        O  0.38765123  0.94949314  0.12124289    -0.80000
O145        O  0.35551698  0.00619790  0.14688125    -0.78200
O146        O  0.34198746  0.93992908  0.16984460    -1.14300
O147        O  0.30081934  0.99386524  0.18713153    -0.73500
C148        C  0.28576244  0.97735294  0.20911267     0.97200
C149        C  0.37008687  0.86565023  0.16197918     0.93600
Al150      Al  0.38789610  0.93691294  0.16428703     1.55600
O151        O  0.28643339  0.89723909  0.16490888    -0.78200
C152        C  0.38540655  0.00799767  0.15893908     0.97700
C153        C  0.38235869  0.91612515  0.22993972     0.92600
O154        O  0.34970194  0.91719409  0.22998129    -0.83500
O155        O  0.18502423  0.94869105  0.29932909    -0.82900
C156        C  0.11823259  0.94925562  0.41166347     0.96400
O157        O  0.14738734  0.95867763  0.40124876    -0.72100
O158        O  0.20054196  0.95532053  0.36253646    -0.75600
Al159      Al  0.15584184  0.97709058  0.36079753     1.49000
C160        C  0.20986491  0.92401668  0.36054924     0.91700
O161        O  0.13396446  0.87136126  0.32848207    -0.81900
O162        O  0.07702448  0.92239282  0.30873988    -0.75400
Al163      Al  0.15705482  0.91304861  0.31691073     1.90100
O164        O  0.09417172  0.88800317  0.36211628    -0.74500
O165        O  0.07495304  0.98124864  0.34069554    -0.74300
O166        O  0.09242829  0.94530888  0.39395119    -0.80000
O167        O  0.11619071  0.00762755  0.36567816    -0.78200
O168        O  0.13362864  0.94172613  0.34242238    -1.14300
O169        O  0.16759939  0.99807492  0.32104252    -0.73500
C170        C  0.18507910  0.98148173  0.30034352     0.97200
C171        C  0.11022403  0.86423442  0.34777911     0.93600
Al172      Al  0.08876767  0.93497556  0.35046467     1.55600
O173        O  0.19046743  0.90201461  0.34789965    -0.78200
C174        C  0.08505866  0.00672489  0.35667602     0.97700
C175        C  0.09407192  0.91806137  0.28362866     0.92600
O176        O  0.12668976  0.91967698  0.28292363    -0.83500
O177        O  0.62275915  0.41655061  0.22627510    -0.82900
C178        C  0.61712719  0.44586675  0.09686100     0.96400
O179        O  0.59173213  0.44144998  0.11519199    -0.72100
O180        O  0.59001835  0.38594195  0.14844017    -0.75600
Al181      Al  0.58663274  0.43330091  0.15897802     1.49000
C182        C  0.60628513  0.36158208  0.16129381     0.91700
O183        O  0.68841198  0.39711482  0.16260397    -0.81900
O184        O  0.66884446  0.49365099  0.18924813    -0.75400
Al185      Al  0.65392094  0.40914722  0.19280354     1.90100
O186        O  0.69938642  0.44966187  0.14667958    -0.74500
O187        O  0.61746804  0.50557784  0.14430984    -0.74300
O188        O  0.64634050  0.45553140  0.10713176    -0.80000
O189        O  0.57404789  0.48018400  0.16734220    -0.78200
O190        O  0.63186607  0.43859560  0.16707100    -1.14300
O191        O  0.57334821  0.42293782  0.20114043    -0.73500
C192        C  0.59012833  0.41771440  0.22606666     0.97200
C193        C  0.70841754  0.41841712  0.14968567     0.93600
Al194      Al  0.65570114  0.47318325  0.14875764     1.55600
O195        O  0.63033051  0.36796157  0.18029210    -0.78200
C196        C  0.58586244  0.50547778  0.15223024     0.97700
C197        C  0.68463170  0.47644634  0.21059466     0.92600
O198        O  0.68249271  0.44377791  0.21149684    -0.83500
O199        O  0.85158672  0.42055653  0.29027395    -0.82900
C200        C  0.85111544  0.44496206  0.42119979     0.96400
O201        O  0.87669626  0.44058769  0.40291341    -0.72100
O202        O  0.88415712  0.38983721  0.36500716    -0.75600
Al203      Al  0.88396388  0.43810488  0.35890139     1.49000
C204        C  0.86753611  0.36528764  0.35332244     0.91700
O205        O  0.78302990  0.39818397  0.35000366    -0.81900
O206        O  0.79606012  0.49525077  0.33000551    -0.75400
Al207      Al  0.81880312  0.41228517  0.32237822     1.90100
O208        O  0.77005687  0.44784874  0.37185994    -0.74500
O209        O  0.84652140  0.50941867  0.37453285    -0.74300
O210        O  0.82239203  0.45653997  0.41106114    -0.80000
O211        O  0.89414095  0.48621868  0.35585049    -0.78200
O212        O  0.83830919  0.44175325  0.35006328    -1.14300
O213        O  0.89918585  0.43311254  0.31607107    -0.73500
C214        C  0.88381136  0.42552934  0.29085043     0.97200
C215        C  0.76279823  0.41678728  0.36610541     0.93600
Al216      Al  0.81152305  0.47430711  0.36966705     1.55600
O217        O  0.84257162  0.37141514  0.33530350    -0.78200
C218        C  0.87860068  0.51127635  0.36884711     0.97700
C219        C  0.78401344  0.47855986  0.30653967     0.92600
O220        O  0.79017918  0.44656424  0.30341366    -0.83500
O221        O  0.92968141  0.32953167  0.04886115    -0.82900
C222        C  0.93463503  0.39423065  0.16743180     0.96400
O223        O  0.95575484  0.37077988  0.15828280    -0.72100
O224        O  0.93221863  0.31076099  0.13868030    -0.75600
Al225      Al  0.96071368  0.34524810  0.11927801     1.49000
C226        C  0.91119986  0.29125788  0.12491415     0.91700
O227        O  0.85828552  0.35388587  0.10652719    -0.81900
O228        O  0.91908709  0.41899168  0.05859751    -0.75400
Al229      Al  0.89515036  0.34255389  0.07824859     1.90100
O230        O  0.86811881  0.41000667  0.10507842    -0.74500
O231        O  0.96530003  0.42437062  0.10575355    -0.74300
O232        O  0.91587204  0.41053695  0.14815423    -0.80000
O233        O  0.99567948  0.37631046  0.10440887    -0.78200
O234        O  0.92517983  0.36678247  0.10062582    -1.14300
O235        O  0.97084408  0.31565095  0.08272504    -0.73500
C236        C  0.95740011  0.31332565  0.05542126     0.97200
C237        C  0.84819658  0.38483565  0.11080720     0.93600
Al238      Al  0.91802262  0.41227726  0.10397132     1.55600
O239        O  0.89998912  0.29967369  0.09851780    -0.78200
C240        C  0.99424571  0.40895123  0.10557503     0.97700
C241        C  0.89683610  0.40472923  0.04101510     0.92600
O242        O  0.88141939  0.37833560  0.05072058    -0.83500
O243        O  0.92845495  0.18824921  0.47345009    -0.82900
C244        C  0.92772114  0.13229843  0.35096305     0.96400
O245        O  0.95169472  0.15070106  0.36213973    -0.72100
O246        O  0.93101095  0.20997858  0.38554047    -0.75600
Al247      Al  0.95703490  0.17267710  0.40251021     1.49000
C248        C  0.90849121  0.22912920  0.39845239     0.91700
O249        O  0.85120681  0.16920131  0.42239183    -0.81900
O250        O  0.91227245  0.09445358  0.45370815    -0.75400
Al251      Al  0.89183054  0.17682674  0.44636770     1.90100
O252        O  0.85947908  0.11397119  0.41349405    -0.74500
O253        O  0.95556089  0.09367382  0.40497110    -0.74300
O254        O  0.90530825  0.11841206  0.36837312    -0.80000
O255        O  0.98913157  0.13720126  0.41589185    -0.78200
O256        O  0.91954982  0.15291591  0.42014219    -1.14300
O257        O  0.96961456  0.19954199  0.43923289    -0.73500
C258        C  0.95710319  0.20202350  0.46676800     0.97200
C259        C  0.83995923  0.14042037  0.41339977     0.93600
Al260      Al  0.90919440  0.10900670  0.41115396     1.55600
O261        O  0.89500468  0.22038889  0.42440637    -0.78200
C262        C  0.98557215  0.10569168  0.40848335     0.97700
C263        C  0.89473930  0.10743211  0.47603396     0.92600
O264        O  0.88231626  0.13793951  0.47400883    -0.83500
O265        O  0.62536955  0.09403693  0.28703784    -0.82900
C266        C  0.61369744  0.06114386  0.41720631     0.96400
O267        O  0.59001955  0.06430828  0.39704076    -0.72100
O268        O  0.58851974  0.12355482  0.36762358    -0.75600
Al269      Al  0.58823915  0.07693860  0.35372359     1.49000
C270        C  0.60275390  0.14846261  0.35366533     0.91700
O271        O  0.68578815  0.11986511  0.35208019    -0.81900
O272        O  0.67669545  0.02212932  0.32792284    -0.75400
Al273      Al  0.65422698  0.10455971  0.32149844     1.90100
O274        O  0.70032650  0.06946351  0.37182421    -0.74500
O275        O  0.62261052  0.00708202  0.36893902    -0.74300
O276        O  0.64490278  0.05811904  0.40801149    -0.80000
O277        O  0.58258827  0.03052516  0.34033347    -0.78200
O278        O  0.63392033  0.07465295  0.34742009    -1.14300
O279        O  0.57577481  0.09097319  0.31223142    -0.73500
C280        C  0.59273855  0.09508772  0.28716564     0.97200
C281        C  0.70620216  0.10133048  0.36778182     0.93600
Al282      Al  0.65909312  0.04189912  0.36712889     1.55600
O283        O  0.62618003  0.14333764  0.33330569    -0.78200
C284        C  0.59240934  0.00579586  0.35737232     0.97700
C285        C  0.69133130  0.03959556  0.30632303     0.92600
O286        O  0.68657083  0.07193410  0.30441910    -0.83500
O287        O  0.84986771  0.10122362  0.22805081    -0.82900
C288        C  0.86442391  0.06781057  0.09926722     0.96400
O289        O  0.88797112  0.06867035  0.11956028    -0.72100
O290        O  0.88574392  0.12863062  0.14757352    -0.75600
Al291      Al  0.88855967  0.08275960  0.16240873     1.49000
C292        C  0.87023979  0.15364206  0.16071083     0.91700
O293        O  0.78816316  0.12224173  0.16232337    -0.81900
O294        O  0.80391973  0.02529867  0.18786858    -0.75400
Al295      Al  0.82066831  0.10916023  0.19343782     1.90100
O296        O  0.77683863  0.07051595  0.14425605    -0.74500
O297        O  0.85831687  0.01261402  0.14701226    -0.74300
O298        O  0.83325692  0.06358281  0.10814927    -0.80000
O299        O  0.89729612  0.03677959  0.17643597    -0.78200
O300        O  0.84299170  0.07927710  0.16846111    -1.14300
O301        O  0.89982746  0.09832698  0.20331045    -0.73500
C302        C  0.88242388  0.10269859  0.22805840     0.97200
C303        C  0.76883575  0.10210156  0.14740705     0.93600
Al304      Al  0.81994083  0.04565485  0.14870795     1.55600
O305        O  0.84653952  0.14876028  0.18080018    -0.78200
C306        C  0.88821034  0.01183467  0.15929686     0.97700
C307        C  0.78871211  0.04227669  0.20977604     0.92600
O308        O  0.79081931  0.07498221  0.21123670    -0.83500
O309        O  0.54181906  0.32095921  0.46714924    -0.82900
C310        C  0.54453273  0.38808309  0.35054708     0.96400
O311        O  0.52066887  0.36770391  0.35925439    -0.72100
O312        O  0.53881821  0.30578309  0.37843481    -0.75600
Al313      Al  0.51278327  0.34241254  0.39768411     1.49000
C314        C  0.56090537  0.28589356  0.39062202     0.91700
O315        O  0.61709732  0.34533789  0.41434453    -0.81900
O316        O  0.55519672  0.41322436  0.45873564    -0.75400
Al317      Al  0.57788520  0.33450946  0.43997298     1.90100
O318        O  0.60886375  0.40149002  0.41652792    -0.74500
O319        O  0.51350716  0.42072904  0.40865164    -0.74300
O320        O  0.56468830  0.40205601  0.37006955    -0.80000
O321        O  0.47952012  0.37670572  0.41242169    -0.78200
O322        O  0.54956407  0.36070233  0.41721528    -1.14300
O323        O  0.49963203  0.31309914  0.43299276    -0.73500
C324        C  0.51288108  0.30803335  0.45994878     0.97200
C325        C  0.62824367  0.37571277  0.41084479     0.93600
Al326      Al  0.55934573  0.40558254  0.41394990     1.55600
O327        O  0.57386816  0.29336974  0.41666713    -0.78200
C328        C  0.48334565  0.40886520  0.40862335     0.97700
C329        C  0.57544985  0.39778197  0.47761846     0.92600
O330        O  0.58922815  0.36936383  0.46957972    -0.83500
O331        O  0.54380317  0.18715593  0.04380572    -0.82900
C332        C  0.54290684  0.12751600  0.16530385     0.96400
O333        O  0.51928282  0.14725022  0.15468560    -0.72100
O334        O  0.54123031  0.20660564  0.13247243    -0.75600
Al335      Al  0.51444738  0.17051504  0.11452544     1.49000
C336        C  0.56421251  0.22510720  0.11997300     0.91700
O337        O  0.62021850  0.16353197  0.09514985    -0.81900
O338        O  0.55833777  0.09215595  0.06162814    -0.75400
Al339      Al  0.57998802  0.17339757  0.07101236     1.90100
O340        O  0.61110878  0.10844899  0.10268497    -0.74500
O341        O  0.51502228  0.09180957  0.10957932    -0.74300
O342        O  0.56481259  0.11328097  0.14732809    -0.80000
O343        O  0.48162311  0.13622215  0.10009572    -0.78200
O344        O  0.55169448  0.14988207  0.09650744    -1.14300
O345        O  0.50266862  0.19902246  0.07823843    -0.73500
C346        C  0.51564866  0.20229900  0.05090113     0.97200
C347        C  0.63100410  0.13419217  0.10360946     0.93600
Al348      Al  0.56131166  0.10540776  0.10439478     1.55600
O349        O  0.57748147  0.21632254  0.09387584    -0.78200
C350        C  0.48505271  0.10424527  0.10605167     0.97700
C351        C  0.57604414  0.10517272  0.03972959     0.92600
O352        O  0.58897417  0.13509522  0.04255346    -0.83500
C353        C  0.49181276  0.24902561  0.47536902    -0.03000
C354        C  0.49715925  0.28413534  0.48327952     0.06700
C355        C  0.49886760  0.29334080  0.51522002    -0.03100
C356        C  0.49340019  0.26155915  0.03458384    -0.03100
C357        C  0.50019654  0.22632209  0.02705034     0.06800
C358        C  0.49977516  0.21630813  0.99507327    -0.03300
Br359      Br  0.50383323  0.16803352  0.98388686    -0.01800
Br360      Br  0.48036580  0.23626978  0.43300630    -0.01900
Br361      Br  0.48964244  0.27659845  0.07752134    -0.01900
Br362      Br  0.49638567  0.34178968  0.52673814    -0.01900
C363        C  0.72964168  0.12601559  0.10537283    -0.03000
C364        C  0.73474987  0.11460698  0.13648333     0.06700
C365        C  0.70658049  0.11388736  0.15756883    -0.03100
C366        C  0.67276792  0.11979714  0.14668023    -0.03100
C367        C  0.66701944  0.12965740  0.11514971     0.06800
C368        C  0.69587713  0.13474053  0.09500471    -0.03300
Br369      Br  0.68940086  0.15341701  0.05335708    -0.01800
Br370      Br  0.76891656  0.13024345  0.07739344    -0.01900
Br371      Br  0.63495909  0.11488064  0.17589076    -0.01900
Br372      Br  0.71438528  0.10616624  0.20187569    -0.01900
C373        C  0.55793154  0.19583627  0.35443179    -0.03000
C374        C  0.59204341  0.18430607  0.36077008     0.06700
C375        C  0.61679539  0.20778128  0.37188417    -0.03100
C376        C  0.60710318  0.24210522  0.37849529    -0.03100
C377        C  0.57208417  0.25296573  0.37545875     0.06800
C378        C  0.54789398  0.23022212  0.36163425    -0.03300
Br379      Br  0.50113643  0.24537589  0.35239230    -0.01800
Br380      Br  0.52530413  0.16481820  0.33493296    -0.01900
Br381      Br  0.64294684  0.27432851  0.39003784    -0.01900
Br382      Br  0.66390382  0.19270535  0.37974720    -0.01900
C383        C  0.77698333  0.02649043  0.26593886    -0.03000
C384        C  0.76662246  0.02541454  0.23414810     0.06700
C385        C  0.73158799  0.01843524  0.22732967    -0.03100
C386        C  0.70631064  0.01923425  0.25167428    -0.03100
C387        C  0.71632389  0.02405314  0.28329472     0.06800
C388        C  0.75203303  0.02473843  0.29040676    -0.03300
Br389      Br  0.76638604  0.02704663  0.33376177    -0.01800
Br390      Br  0.82517944  0.03324629  0.27581221    -0.01900
Br391      Br  0.65770133  0.01761951  0.24149296    -0.01900
Br392      Br  0.71806125  0.01100619  0.18426406    -0.01900
C393        C  0.62952676  0.06265207  0.47540584    -0.03000
C394        C  0.60393938  0.06299394  0.45149453     0.06700
C395        C  0.56851827  0.06741005  0.46095229    -0.03100
C396        C  0.56034152  0.07931455  0.49147786    -0.03100
C397        C  0.58284402  0.08509686  0.01064557     0.06800
C398        C  0.61680528  0.07409635  0.00323974    -0.03300
Br399      Br  0.65125176  0.07338330  0.03587536    -0.01800
Br400      Br  0.67510981  0.04258510  0.46825494    -0.01900
Br401      Br  0.51263779  0.08636782  0.50440872    -0.01900
Br402      Br  0.53008579  0.05551617  0.43394173    -0.01900
C403        C  0.57359330  0.13869948  0.24785032    -0.03000
C404        C  0.57435561  0.10392965  0.25807399     0.06700
C405        C  0.55854098  0.07801404  0.23998047    -0.03100
C406        C  0.54511381  0.08633387  0.21019260    -0.03100
C407        C  0.54632315  0.12081372  0.19915008     0.06800
C408        C  0.55879293  0.14722377  0.21877351    -0.03300
Br409      Br  0.55867966  0.19470673  0.20471782    -0.01800
Br410      Br  0.59457463  0.17477028  0.27253919    -0.01900
Br411      Br  0.52634076  0.05033110  0.18391311    -0.01900
Br412      Br  0.55717729  0.03099477  0.25526574    -0.01900
C413        C  0.85821686  0.07843666  0.00995315    -0.03000
C414        C  0.88753332  0.08664837  0.50465494     0.06700
C415        C  0.91753887  0.08916861  0.02531376    -0.03100
C416        C  0.90908463  0.08239096  0.05685923    -0.03100
C417        C  0.87444360  0.07252653  0.06536683     0.06800
C418        C  0.84996618  0.06791595  0.04081526    -0.03300
Br419      Br  0.80543996  0.04650607  0.04790664    -0.01800
Br420      Br  0.82055132  0.07376058  0.47742440    -0.01900
Br421      Br  0.94606383  0.09024602  0.08675922    -0.01900
Br422      Br  0.96525343  0.09444451  0.01232954    -0.01900
C423        C  0.90028092  0.14580314  0.26793395    -0.03000
C424        C  0.90028002  0.11122954  0.25715081     0.06700
C425        C  0.91615180  0.08487289  0.27479709    -0.03100
C426        C  0.92745246  0.09217309  0.30538652    -0.03100
C427        C  0.92518632  0.12637590  0.31710765     0.06800
C428        C  0.91399474  0.15355359  0.29755958    -0.03300
Br429      Br  0.91464902  0.20092954  0.31219276    -0.01800
Br430      Br  0.88009695  0.18241713  0.24297720    -0.01900
Br431      Br  0.94463584  0.05515088  0.33164736    -0.01900
Br432      Br  0.92117024  0.03882414  0.25737417    -0.01900
C433        C  0.79867562  0.13254761  0.36909134    -0.03000
C434        C  0.80408424  0.13722160  0.40156118     0.06700
C435        C  0.77533588  0.13676803  0.42227863    -0.03100
C436        C  0.74273712  0.12568003  0.41125387    -0.03100
C437        C  0.73871587  0.11657607  0.37934428     0.06800
C438        C  0.76597551  0.12271578  0.35792654    -0.03300
Br439      Br  0.75856785  0.11828678  0.31317833    -0.01800
Br440      Br  0.83538342  0.14180169  0.33957289    -0.01900
Br441      Br  0.70320413  0.12474528  0.43916777    -0.01900
Br442      Br  0.78012857  0.15298307  0.46497969    -0.01900
C443        C  0.85600563  0.21201774  0.13987755    -0.03000
C444        C  0.88040152  0.18923734  0.15312179     0.06700
C445        C  0.91413733  0.20076320  0.16001872    -0.03100
C446        C  0.92357167  0.23520335  0.15348746    -0.03100
C447        C  0.89978484  0.25766590  0.13822520     0.06800
C448        C  0.86561549  0.24589788  0.13203045    -0.03300
Br449      Br  0.83077803  0.27553269  0.11304658    -0.01800
Br450      Br  0.80965972  0.19613695  0.13085610    -0.01900
Br451      Br  0.96955501  0.25031768  0.16479782    -0.01900
Br452      Br  0.94755883  0.16925641  0.17850357    -0.01900
C453        C  0.97397341  0.25283152  0.03933835    -0.03000
C454        C  0.97069777  0.28819867  0.03147574     0.06700
C455        C  0.97071088  0.29750556  0.99941397    -0.03100
C456        C  0.98360078  0.25817096  0.48496203    -0.03100
C457        C  0.97361377  0.22371078  0.49148855     0.06800
C458        C  0.97024573  0.22718585  0.01592666    -0.03300
Br459      Br  0.97194312  0.17933756  0.02757559    -0.01800
Br460      Br  0.98101511  0.23890258  0.08230240    -0.01900
Br461      Br  0.99882836  0.27136701  0.44372057    -0.01900
Br462      Br  0.97294313  0.34591398  0.98813954    -0.01900
C463        C  0.91592910  0.44486493  0.24235819    -0.03000
C464        C  0.90378436  0.41813083  0.26183350     0.06700
C465        C  0.90756837  0.38330070  0.25207175    -0.03100
C466        C  0.92129950  0.37522776  0.22227309    -0.03100
C467        C  0.93001250  0.40206530  0.20132671     0.06800
C468        C  0.92871462  0.43689332  0.21194670    -0.03300
Br469      Br  0.94434894  0.47366927  0.18476618    -0.01800
Br470      Br  0.91327573  0.49224887  0.25677591    -0.01900
Br471      Br  0.92501432  0.32716765  0.20983723    -0.01900
Br472      Br  0.89196003  0.34609009  0.27864536    -0.01900
C473        C  0.86242838  0.45586472  0.47917653    -0.03000
C474        C  0.85578405  0.43288758  0.45415170     0.06700
C475        C  0.86111232  0.39725503  0.45877279    -0.03100
C476        C  0.87756123  0.38473463  0.48586538    -0.03100
C477        C  0.88629964  0.41812775  0.00946669     0.06800
C478        C  0.88602468  0.45401986  0.00224184    -0.03300
Br479      Br  0.90236291  0.48785778  0.03203328    -0.01800
Br480      Br  0.84992949  0.50406823  0.47466495    -0.01900
Br481      Br  0.89042906  0.33607634  0.48681432    -0.01900
Br482      Br  0.84277875  0.36510255  0.42883572    -0.01900
C483        C  0.91309650  0.31911032  0.36156655    -0.03000
C484        C  0.87764149  0.32900403  0.36120734     0.06700
C485        C  0.85223623  0.30435140  0.36947099    -0.03100
C486        C  0.86237016  0.27148549  0.38082234    -0.03100
C487        C  0.89789700  0.26240162  0.38325214     0.06800
C488        C  0.92301874  0.28556587  0.37133382    -0.03300
Br489      Br  0.97113595  0.27180137  0.36717775    -0.01800
Br490      Br  0.94859095  0.35109251  0.34792660    -0.01900
Br491      Br  0.82701717  0.23810959  0.39074982    -0.01900
Br492      Br  0.80326054  0.31574494  0.36736779    -0.01900
C493        C  0.70486637  0.38970002  0.35670364    -0.03000
C494        C  0.72974788  0.40256151  0.37792458     0.06700
C495        C  0.72187051  0.40410332  0.41035375    -0.03100
C496        C  0.68845182  0.39565599  0.42115560    -0.03100
C497        C  0.66401922  0.38191634  0.40012724     0.06800
C498        C  0.67261422  0.37803108  0.36805454    -0.03300
Br499      Br  0.63918815  0.35896218  0.33938179    -0.01800
Br500      Br  0.71322176  0.39139276  0.31187525    -0.01900
Br501      Br  0.67562777  0.40463450  0.46443889    -0.01900
Br502      Br  0.75712430  0.41640691  0.44026367    -0.01900
C503        C  0.76651775  0.39142413  0.16053166    -0.03000
C504        C  0.74346005  0.40758254  0.13920714     0.06700
C505        C  0.75519970  0.41645733  0.10879489    -0.03100
C506        C  0.78974035  0.40958773  0.09988172    -0.03100
C507        C  0.81222950  0.39213812  0.12065197     0.06800
C508        C  0.80065094  0.38302891  0.15097116    -0.03300
Br509      Br  0.83246039  0.36156166  0.18015733    -0.01800
Br510      Br  0.75284941  0.38392982  0.20378824    -0.01900
Br511      Br  0.80629693  0.42462725  0.05919326    -0.01900
Br512      Br  0.72395629  0.43734183  0.07877479    -0.01900
C513        C  0.74415836  0.49521285  0.22656615    -0.03000
C514        C  0.70852581  0.49255069  0.23417988     0.06700
C515        C  0.69875700  0.49451708  0.26627572    -0.03100
C516        C  0.72419761  0.49705948  0.29019906    -0.03100
C517        C  0.75987964  0.49416546  0.28270525     0.06800
C518        C  0.76962929  0.49460496  0.25056015    -0.03300
Br519      Br  0.81803060  0.49092865  0.23934995    -0.01800
Br520      Br  0.75821273  0.49589017  0.18295967    -0.01900
Br521      Br  0.71022700  0.50080477  0.33370543    -0.01900
Br522      Br  0.65070850  0.48952517  0.27775191    -0.01900
C523        C  0.62142364  0.30012860  0.14574390    -0.03000
C524        C  0.59622382  0.32526006  0.15431272     0.06700
C525        C  0.56096618  0.31549490  0.15636418    -0.03100
C526        C  0.55094478  0.28149110  0.14851596    -0.03100
C527        C  0.57549374  0.25796428  0.13536862     0.06800
C528        C  0.61105627  0.26696073  0.13562764    -0.03300
Br529      Br  0.64630560  0.23317887  0.12444141    -0.01800
Br530      Br  0.67027464  0.31110430  0.14676448    -0.01900
Br531      Br  0.50378083  0.26758218  0.15729209    -0.01900
Br532      Br  0.52600928  0.34831223  0.17084099    -0.01900
C533        C  0.61194241  0.39967926  0.05744141    -0.03000
C534        C  0.61182850  0.43533631  0.06377047     0.06700
C535        C  0.59769937  0.45838318  0.04150526    -0.03100
C536        C  0.58385099  0.44561270  0.01290224    -0.03100
C537        C  0.58578698  0.41243164  0.50870744     0.06800
C538        C  0.59487248  0.38651397  0.03098487    -0.03300
Br539      Br  0.59331323  0.33980317  0.53041251    -0.01800
Br540      Br  0.63612325  0.36864639  0.08539060    -0.01900
Br541      Br  0.57123337  0.48197794  0.48382542    -0.01900
Br542      Br  0.59799723  0.50741782  0.05033355    -0.01900
C543        C  0.56968996  0.37557639  0.26554560    -0.03000
C544        C  0.57173698  0.41020450  0.25539393     0.06700
C545        C  0.56027620  0.43730996  0.27500792    -0.03100
C546        C  0.55054124  0.43010501  0.30621885    -0.03100
C547        C  0.54975202  0.39545161  0.31691995     0.06800
C548        C  0.55777365  0.36811411  0.29595795    -0.03300
Br549      Br  0.55607197  0.32040531  0.30926430    -0.01800
Br550      Br  0.58498320  0.33814652  0.23848492    -0.01900
Br551      Br  0.53966035  0.46787911  0.33439090    -0.01900
Br552      Br  0.55881251  0.48409222  0.25908986    -0.01900
C553        C  0.03043312  0.02219408  0.38673753    -0.03000
C554        C  0.05970703  0.03311943  0.36908470     0.06700
C555        C  0.06724234  0.06891727  0.36820592    -0.03100
C556        C  0.04446672  0.09345558  0.38263022    -0.03100
C557        C  0.01548881  0.08214923  0.40051612     0.06800
C558        C  0.01073210  0.04621893  0.40440567    -0.03300
Br559      Br  0.97827480  0.02945494  0.43575110    -0.01800
Br560      Br  0.01563028  0.97457158  0.38759034    -0.01900
Br561      Br  0.05286980  0.14218926  0.37648834    -0.01900
Br562      Br  0.10767171  0.08450954  0.34541154    -0.01900
C563        C  0.39939506  0.06869584  0.13913353    -0.03000
C564        C  0.41039756  0.03442427  0.14648438     0.06700
C565        C  0.44352339  0.02337651  0.13543269    -0.03100
C566        C  0.46304037  0.04460264  0.11544346    -0.03100
C567        C  0.45528499  0.08038028  0.11293068     0.06800
C568        C  0.42243392  0.09215017  0.12408811    -0.03300
Br569      Br  0.40807571  0.13975857  0.11848815    -0.01800
Br570      Br  0.35341258  0.08434721  0.15110939    -0.01900
Br571      Br  0.49929280  0.02323190  0.08978286    -0.01900
Br572      Br  0.46526206  0.98044977  0.14822383    -0.01900
C573        C  0.22547110  0.99658967  0.22222070    -0.03000
C574        C  0.26078171  0.99438060  0.23087725     0.06700
C575        C  0.26984400  0.99843707  0.26271706    -0.03100
C576        C  0.24371058  0.00178350  0.28593511    -0.03100
C577        C  0.20845928  0.99864742  0.27766914     0.06800
C578        C  0.19938013  0.99830501  0.24563965    -0.03300
Br579      Br  0.15103190  0.99565954  0.23438141    -0.01800
Br580      Br  0.21252593  0.99202532  0.17866940    -0.01900
Br581      Br  0.25624434  0.00622468  0.32956692    -0.01900
Br582      Br  0.31792203  0.99434631  0.27480186    -0.01900
C583        C  0.93919749  0.56483378  0.42008482    -0.03000
C584        C  0.94163691  0.59606590  0.40339927     0.06700
C585        C  0.91890606  0.60164575  0.37772632    -0.03100
C586        C  0.89741541  0.57441126  0.36675757    -0.03100
C587        C  0.89910014  0.54133999  0.38087606     0.06800
C588        C  0.92019849  0.53700038  0.40783588    -0.03300
Br589      Br  0.92680245  0.49249196  0.42710952    -0.01800
Br590      Br  0.96179811  0.56075178  0.46045602    -0.01900
Br591      Br  0.86819622  0.58122961  0.33061933    -0.01900
Br592      Br  0.91749998  0.64605680  0.35712843    -0.01900
C593        C  0.06478239  0.81822513  0.34802669    -0.03000
C594        C  0.09974236  0.82779099  0.35259735     0.06700
C595        C  0.12429439  0.80225953  0.36100242    -0.03100
C596        C  0.11316346  0.76870570  0.36886792    -0.03100
C597        C  0.07755300  0.76015074  0.36788228     0.06800
C598        C  0.05385563  0.78428968  0.35490850    -0.03300
Br599      Br  0.00611557  0.77188258  0.34727745    -0.01800
Br600      Br  0.03173045  0.85131356  0.33143582    -0.01900
Br601      Br  0.14731317  0.73404711  0.37919780    -0.01900
Br602      Br  0.17309837  0.81324336  0.36276530    -0.01900
C603        C  0.96902823  0.97492208  0.11932259    -0.03000
C604        C  0.95885411  0.94068798  0.11164236     0.06700
C605        C  0.92521270  0.92990772  0.12103314    -0.03100
C606        C  0.90334045  0.95194771  0.13918578    -0.03100
C607        C  0.91425111  0.98542212  0.14797192     0.06800
C608        C  0.94820935  0.99587071  0.13927061    -0.03300
Br609      Br  0.96904524  0.03730896  0.15642221    -0.01800
Br610      Br  0.01115300  0.99496850  0.10259101    -0.01900
Br611      Br  0.85960249  0.93478972  0.15493616    -0.01900
Br612      Br  0.90747253  0.88580381  0.10710368    -0.01900
C613        C  0.17328600  0.88765764  0.15152126    -0.03000
C614        C  0.16355032  0.89262747  0.11992111     0.06700
C615        C  0.18848369  0.90353796  0.09780497    -0.03100
C616        C  0.22293617  0.90916964  0.10718449    -0.03100
C617        C  0.23246986  0.90553003  0.13897128     0.06800
C618        C  0.20756218  0.89424052  0.16112798    -0.03300
Br619      Br  0.21956972  0.88928007  0.20499695    -0.01800
Br620      Br  0.13982240  0.87146121  0.18165697    -0.01900
Br621      Br  0.25747217  0.91996509  0.07605169    -0.01900
Br622      Br  0.17490308  0.91324165  0.05503017    -0.01900
C623        C  0.99190267  0.73254439  0.00601751    -0.03000
C624        C  0.99584202  0.74241969  0.47566096     0.06700
C625        C  0.00214438  0.77786548  0.47030819    -0.03100
C626        C  0.00758761  0.80269115  0.99586834    -0.03100
C627        C  0.00116913  0.79121363  0.02675794     0.06800
C628        C  0.99153398  0.75639771  0.03146036    -0.03300
Br629      Br  0.98117527  0.74084405  0.07338729    -0.01800
Br630      Br  0.98208877  0.68432421  0.01321847    -0.01900
Br631      Br  0.01882306  0.85068928  0.98864463    -0.01900
Br632      Br  0.01831618  0.79310388  0.42986486    -0.01900
C633        C  0.03828975  0.92442886  0.21153918    -0.03000
C634        C  0.04247617  0.89070347  0.19863196     0.06700
C635        C  0.05999155  0.86497320  0.21630224    -0.03100
C636        C  0.07759614  0.87435850  0.24379492    -0.03100
C637        C  0.07552049  0.90867539  0.25505593     0.06800
C638        C  0.05467081  0.93327353  0.23982306    -0.03300
Br639      Br  0.05067572  0.97968837  0.25680698    -0.01800
Br640      Br  0.00981898  0.95876208  0.19110731    -0.01900
Br641      Br  0.10629874  0.84034875  0.26485080    -0.01900
Br642      Br  0.06262627  0.81717632  0.20266357    -0.01900
C643        C  0.09153089  0.95878089  0.46391143    -0.03000
C644        C  0.11384537  0.93934665  0.44438113     0.06700
C645        C  0.12513723  0.90622712  0.45329963    -0.03100
C646        C  0.11344982  0.89196562  0.48160568    -0.03100
C647        C  0.09102786  0.91354389  0.00650354     0.06800
C648        C  0.08496504  0.94864353  0.99795889    -0.03300
Br649      Br  0.06584190  0.98205490  0.02738662    -0.01800
Br650      Br  0.08134414  0.00637222  0.45340101    -0.01900
Br651      Br  0.12871308  0.84752223  0.99595875    -0.01900
Br652      Br  0.15490250  0.87933688  0.42547529    -0.01900
C653        C  0.04467667  0.49079326  0.10920896    -0.03000
C654        C  0.06905511  0.48400737  0.13335222     0.06700
C655        C  0.07285283  0.44972858  0.14434037    -0.03100
C656        C  0.05063178  0.42328048  0.13321922    -0.03100
C657        C  0.02574178  0.43067480  0.10960922     0.06800
C658        C  0.02539809  0.46378784  0.09591646    -0.03300
Br659      Br  0.99808915  0.47204188  0.05850198    -0.01800
Br660      Br  0.03390675  0.53708760  0.09552801    -0.01900
Br661      Br  0.05333207  0.37784530  0.15187749    -0.01900
Br662      Br  0.10628634  0.44000263  0.17679707    -0.01900
C663        C  0.08363456  0.63274378  0.30715118    -0.03000
C664        C  0.05191329  0.61866017  0.31681531     0.06700
C665        C  0.03384966  0.59616075  0.29673212    -0.03100
C666        C  0.04813544  0.58709610  0.26702187    -0.03100
C667        C  0.08034375  0.60111510  0.25729541     0.06800
C668        C  0.09743456  0.62489740  0.27742473    -0.03300
Br669      Br  0.13886562  0.64942282  0.26480975    -0.01800
Br670      Br  0.10876383  0.66283910  0.33524731    -0.01900
Br671      Br  0.02431290  0.55419413  0.24077494    -0.01900
Br672      Br  0.99030869  0.57709562  0.31064484    -0.01900
C673        C  0.10505068  0.62488474  0.05528520    -0.03000
C674        C  0.10987318  0.58934907  0.06100222     0.06700
C675        C  0.10171113  0.56501419  0.03755108    -0.03100
C676        C  0.08800494  0.57623708  0.00851081    -0.03100
C677        C  0.07872703  0.60499448  0.50723437     0.06800
C678        C  0.09002704  0.63621444  0.02714175    -0.03300
Br679      Br  0.10132564  0.67590513  0.52559744    -0.01800
Br680      Br  0.12052529  0.65849730  0.08568553    -0.01900
Br681      Br  0.06068431  0.53703534  0.48059924    -0.01900
Br682      Br  0.10989312  0.51636980  0.04532872    -0.01900
C683        C  0.12202620  0.71689003  0.15584847    -0.03000
C684        C  0.09634589  0.69170689  0.16120293     0.06700
C685        C  0.06104532  0.70138288  0.15995475    -0.03100
C686        C  0.05128863  0.73524650  0.15127230    -0.03100
C687        C  0.07695887  0.75889575  0.14050686     0.06800
C688        C  0.11244437  0.75024638  0.14539245    -0.03300
Br689      Br  0.14923562  0.78369210  0.13959147    -0.01800
Br690      Br  0.17065370  0.70537615  0.16066636    -0.01900
Br691      Br  0.00313297  0.74874031  0.15720055    -0.01900
Br692      Br  0.02542473  0.66821944  0.17054069    -0.01900
C693        C  0.44281792  0.48824175  0.37287894    -0.03000
C694        C  0.40784034  0.47933066  0.36689080     0.06700
C695        C  0.39697211  0.44563325  0.37557831    -0.03100
C696        C  0.42067572  0.42211278  0.39024540    -0.03100
C697        C  0.45428055  0.43334625  0.39949330     0.06800
C698        C  0.46306604  0.46825787  0.39320626    -0.03300
Br699      Br  0.50104722  0.49162136  0.41410838    -0.01800
Br700      Br  0.46565025  0.52618645  0.35130267    -0.01900
Br701      Br  0.40583512  0.37532726  0.39833279    -0.01900
Br702      Br  0.35054256  0.43062013  0.36617672    -0.01900
C703        C  0.22142139  0.63384304  0.40099934    -0.03000
C704        C  0.22858336  0.59956965  0.39117375     0.06700
C705        C  0.20314678  0.57422540  0.39654968    -0.03100
C706        C  0.16839939  0.58429163  0.40227665    -0.03100
C707        C  0.15998436  0.61966281  0.40894133     0.06800
C708        C  0.18798876  0.64299157  0.41236094    -0.03300
Br709      Br  0.18290378  0.68416958  0.43797360    -0.01800
Br710      Br  0.25852383  0.66695892  0.40281004    -0.01900
Br711      Br  0.13391874  0.54815209  0.40026313    -0.01900
Br712      Br  0.21606013  0.52581885  0.39975536    -0.01900
C713        C  0.22703753  0.52000329  0.27940911    -0.03000
C714        C  0.26241732  0.52860138  0.27508789     0.06700
C715        C  0.27537345  0.52995379  0.24384959    -0.03100
C716        C  0.25283586  0.52640377  0.21782748    -0.03100
C717        C  0.21683444  0.52232038  0.22248020     0.06800
C718        C  0.20459802  0.51654585  0.25326782    -0.03300
Br719      Br  0.15576584  0.50786379  0.25932674    -0.01800
Br720      Br  0.20749587  0.51817443  0.32083374    -0.01900
Br721      Br  0.27052443  0.53051610  0.17546253    -0.01900
Br722      Br  0.32364802  0.53963439  0.23649403    -0.01900
C723        C  0.54396925  0.59392136  0.13468348    -0.03000
C724        C  0.51706288  0.58438536  0.11379686     0.06700
C725        C  0.51419175  0.54934916  0.10489553    -0.03100
C726        C  0.53441325  0.52371286  0.11962945    -0.03100
C727        C  0.56178416  0.53295218  0.14014324     0.06800
C728        C  0.56737643  0.56845768  0.14632498    -0.03300
Br729      Br  0.60571188  0.58198020  0.17250334    -0.01800
Br730      Br  0.54714000  0.64086338  0.15011939    -0.01900
Br731      Br  0.52227124  0.47620228  0.11154820    -0.01900
Br732      Br  0.48211708  0.53614391  0.07206000    -0.01900
C733        C  0.41419017  0.58369223  0.98833369    -0.03000
C734        C  0.38860200  0.58873952  0.01150365     0.06700
C735        C  0.35065906  0.59758382  0.50094150    -0.03100
C736        C  0.34190808  0.58442565  0.47104191    -0.03100
C737        C  0.36822708  0.57496247  0.44951822     0.06800
C738        C  0.40332003  0.57612428  0.45917844    -0.03300
Br739      Br  0.43978796  0.56207633  0.43059238    -0.01800
Br740      Br  0.46221534  0.59117887  0.99846291    -0.01900
Br741      Br  0.29379227  0.58156170  0.45893307    -0.01900
Br742      Br  0.31375436  0.61465699  0.52788517    -0.01900
C743        C  0.42468350  0.58798559  0.21056277    -0.03000
C744        C  0.42480937  0.62285019  0.20043463     0.06700
C745        C  0.41690056  0.64935067  0.22217694    -0.03100
C746        C  0.40380198  0.64093231  0.25216090    -0.03100
C747        C  0.39868380  0.60590122  0.26062473     0.06800
C748        C  0.41231367  0.57951316  0.24089968    -0.03300
Br749      Br  0.41405033  0.53196437  0.25499907    -0.01800
Br750      Br  0.44206450  0.55196643  0.18289291    -0.01900
Br751      Br  0.39486542  0.67762950  0.28218632    -0.01900
Br752      Br  0.42241247  0.69720825  0.21057325    -0.01900
C753        C  0.26622619  0.62797836  0.15586594    -0.03000
C754        C  0.24021865  0.62127487  0.13350723     0.06700
C755        C  0.24624960  0.62851053  0.10146456    -0.03100
C756        C  0.27891425  0.64063564  0.09172259    -0.03100
C757        C  0.30630572  0.64180800  0.11343033     0.06800
C758        C  0.29944754  0.63764376  0.14571698    -0.03300
Br759      Br  0.33512034  0.64680872  0.17611958    -0.01800
Br760      Br  0.25718266  0.62250619  0.20031828    -0.01900
Br761      Br  0.28573370  0.65734329  0.04941953    -0.01900
Br762      Br  0.21026822  0.62113476  0.07094589    -0.01900
C763        C  0.42145324  0.78244490  0.15112902    -0.03000
C764        C  0.39774496  0.76235434  0.13346667     0.06700
C765        C  0.36404705  0.77572291  0.12768432    -0.03100
C766        C  0.35539572  0.80982751  0.13644253    -0.03100
C767        C  0.37952701  0.83017629  0.15260090     0.06800
C768        C  0.41240816  0.81647600  0.16020200    -0.03300
Br769      Br  0.44534972  0.84468025  0.18267192    -0.01800
Br770      Br  0.46691857  0.76480243  0.16246376    -0.01900
Br771      Br  0.31137003  0.82969688  0.12397952    -0.01900
Br772      Br  0.32828332  0.74700503  0.11003402    -0.01900
C773        C  0.50627193  0.96840456  0.38556407    -0.03000
C774        C  0.51636506  0.93732383  0.40082348     0.06700
C775        C  0.55196714  0.92825574  0.40104812    -0.03100
C776        C  0.57689427  0.94925182  0.38563866    -0.03100
C777        C  0.56644563  0.97928826  0.36860076     0.06800
C778        C  0.53028343  0.98720904  0.36736715    -0.03300
Br779      Br  0.51108937  0.02173270  0.33888753    -0.01800
Br780      Br  0.45944271  0.98680367  0.38876103    -0.01900
Br781      Br  0.62497385  0.93456559  0.38643983    -0.01900
Br782      Br  0.56683732  0.88824173  0.42485203    -0.01900
C783        C  0.36073792  0.75123502  0.36984457    -0.03000
C784        C  0.39512499  0.75538865  0.38130833     0.06700
C785        C  0.41710938  0.72599662  0.38312645    -0.03100
C786        C  0.40363548  0.69284232  0.37832537    -0.03100
C787        C  0.37000799  0.68866742  0.36536675     0.06800
C788        C  0.34904908  0.71834310  0.36034552    -0.03300
Br789      Br  0.30473140  0.71514156  0.33928827    -0.01800
Br790      Br  0.32907850  0.79016071  0.36550470    -0.01900
Br791      Br  0.43126629  0.65392947  0.39310170    -0.01900
Br792      Br  0.46630832  0.72944454  0.39149571    -0.01900
C793        C  0.47077374  0.76823708  0.03717196    -0.03000
C794        C  0.47255006  0.73274752  0.02878642     0.06700
C795        C  0.47899916  0.72445220  0.99677025    -0.03100
C796        C  0.48985658  0.76253986  0.48818091    -0.03100
C797        C  0.47101878  0.79406842  0.49068770     0.06800
C798        C  0.46918255  0.79404892  0.01371813    -0.03300
Br799      Br  0.46200390  0.84162116  0.02552708    -0.01800
Br800      Br  0.46700345  0.78228765  0.08042289    -0.01900
Br801      Br  0.52112920  0.75573437  0.45334993    -0.01900
Br802      Br  0.48687555  0.67702787  0.98479054    -0.01900
C803        C  0.26849892  0.89890740  0.34983208    -0.03000
C804        C  0.24466049  0.91378262  0.37136870     0.06700
C805        C  0.25527998  0.92147566  0.40229481    -0.03100
C806        C  0.28905320  0.91275405  0.41201814    -0.03100
C807        C  0.31243615  0.89649857  0.39091393     0.06800
C808        C  0.30235722  0.89072465  0.35956328    -0.03300
Br809      Br  0.33511552  0.87291068  0.32941037    -0.01800
Br810      Br  0.25600444  0.89228468  0.30620379    -0.01900
Br811      Br  0.30422064  0.92651797  0.45324500    -0.01900
Br812      Br  0.22401986  0.94440410  0.43148855    -0.01900
C813        C  0.39555297  0.87069475  0.26990984    -0.03000
C814        C  0.40129086  0.90439213  0.25804987     0.06700
C815        C  0.42800416  0.92460337  0.27090786    -0.03100
C816        C  0.44544553  0.91297770  0.29788547    -0.03100
C817        C  0.43532611  0.88221847  0.31284674     0.06800
C818        C  0.41309006  0.85934804  0.29700055    -0.03300
Br819      Br  0.40556231  0.81298040  0.31251892    -0.01800
Br820      Br  0.36354337  0.83977158  0.24951852    -0.01900
Br821      Br  0.48559404  0.93680361  0.31285036    -0.01900
Br822      Br  0.43965531  0.96886028  0.25284450    -0.01900
C823        C  0.35625104  0.94000319  0.01297336    -0.03000
C824        C  0.38952507  0.92747692  0.00476664     0.06700
C825        C  0.41634726  0.92951715  0.02648438    -0.03100
C826        C  0.40827548  0.93403108  0.05836952    -0.03100
C827        C  0.37442248  0.94612329  0.06728007     0.06800
C828        C  0.35034148  0.95348304  0.04322285    -0.03300
Br829      Br  0.31168700  0.98493862  0.04984078    -0.01800
Br830      Br  0.31783772  0.93600484  0.98469279    -0.01900
Br831      Br  0.44330511  0.91853084  0.08759016    -0.01900
Br832      Br  0.42666182  0.97601146  0.48828124    -0.01900
O833        O  0.40046167  0.87569315  0.97719439    -0.82900
C834        C  0.42647744  0.88161148  0.84610027     0.96400
O835        O  0.42338563  0.90652346  0.86513668    -0.72100
O836        O  0.36415627  0.90339492  0.89501792    -0.75600
Al837      Al  0.41033353  0.90907632  0.90850502     1.49000
C838        C  0.34047854  0.89117146  0.91213958     0.91700
O839        O  0.37131877  0.81161799  0.91584387    -0.81900
O840        O  0.47017006  0.82337559  0.93594656    -0.75400
Al841      Al  0.38772363  0.84465066  0.94496992     1.90100
O842        O  0.42150576  0.79764342  0.89425044    -0.74500
O843        O  0.48199187  0.87725998  0.89487556    -0.74300
O844        O  0.43148256  0.85135289  0.85654946    -0.80000
O845        O  0.45628313  0.91907080  0.92109593    -0.78200
O846        O  0.41571829  0.86424192  0.91697385    -1.14300
O847        O  0.39508636  0.92333317  0.94960332    -0.73500
C848        C  0.39560059  0.90798809  0.97567606     0.97200
C849        C  0.38976848  0.79129019  0.89957339     0.93600
Al850      Al  0.44870042  0.83945406  0.89725304     1.55600
O851        O  0.34756509  0.87160981  0.93497958    -0.78200
C852        C  0.48215095  0.90804839  0.90563708     0.97700
C853        C  0.45385094  0.80884049  0.95827846     0.92600
O854        O  0.42151402  0.81327942  0.96130914    -0.83500
O855        O  0.38141066  0.64482112  0.54769042    -0.82900
C856        C  0.43162517  0.62812728  0.66692855     0.96400
O857        O  0.41008643  0.61367817  0.64888604    -0.72100
O858        O  0.36434323  0.60898041  0.60351748    -0.75600
Al859      Al  0.41331334  0.60876922  0.60485190     1.49000
C860        C  0.34126868  0.63186491  0.60592557     0.91700
O861        O  0.38895559  0.71717512  0.60748964    -0.81900
O862        O  0.46791671  0.70322560  0.58045065    -0.75400
Al863      Al  0.38828622  0.67896344  0.57981382     1.90100
O864        O  0.43476937  0.71018745  0.63700022    -0.74500
O865        O  0.49157212  0.64000273  0.59949293    -0.74300
O866        O  0.45469972  0.64846175  0.65619591    -0.80000
O867        O  0.45999281  0.59506784  0.60865302    -0.78200
O868        O  0.42044502  0.65412112  0.60013579    -1.14300
O869        O  0.41506095  0.60040578  0.56033348    -0.73500
C870        C  0.39500858  0.61567401  0.54100352     0.97200
C871        C  0.40812362  0.72707379  0.62949420     0.93600
Al872      Al  0.45875773  0.67356108  0.61654292     1.55600
O873        O  0.35021037  0.66291463  0.60426675    -0.78200
C874        C  0.48942523  0.60793366  0.60472382     0.97700
C875        C  0.44996093  0.71217753  0.55678747     0.92600
O876        O  0.42022744  0.69997916  0.55235701    -0.83500
O877        O  0.30398168  0.56878346  0.79257586    -0.82900
C878        C  0.35832685  0.56671754  0.91703257     0.96400
O879        O  0.33668960  0.54521295  0.90617320    -0.72100
O880        O  0.27778410  0.56961466  0.88021185    -0.75600
Al881      Al  0.31495997  0.54071013  0.86484199     1.49000
C882        C  0.26068008  0.59167934  0.86460670     0.91700
O883        O  0.32483591  0.64517168  0.84568822    -0.81900
O884        O  0.39680433  0.58062342  0.81330137    -0.75400
Al885      Al  0.31624382  0.60520776  0.82031414     1.90100
O886        O  0.37957608  0.63415812  0.85449088    -0.74500
O887        O  0.39381604  0.53766291  0.86128353    -0.74300
O888        O  0.37237072  0.58836660  0.89905799    -0.80000
O889        O  0.34893215  0.50562545  0.85265314    -0.78200
O890        O  0.33754976  0.57644624  0.84699022    -1.14300
O891        O  0.28905809  0.52936650  0.82720899    -0.73500
C892        C  0.28791150  0.54133060  0.79943424     0.97200
C893        C  0.35403593  0.65488472  0.85536855     0.93600
Al894      Al  0.38169378  0.58432099  0.85603387     1.55600
O895        O  0.27277934  0.60397985  0.83969528    -0.78200
C896        C  0.38096937  0.50806936  0.85844553     0.97700
C897        C  0.38507604  0.59931662  0.79144990     0.92600
O898        O  0.35556552  0.61350615  0.79395685    -0.83500
O899        O  0.17017651  0.56119451  0.71497588    -0.82900
C900        C  0.10864493  0.56567744  0.59609564     0.96400
O901        O  0.12844470  0.54107785  0.60429282    -0.72100
O902        O  0.18612225  0.56319830  0.62643278    -0.75600
Al903      Al  0.15199596  0.53375362  0.64355456     1.49000
C904        C  0.20349406  0.58674743  0.63892801     0.91700
O905        O  0.13906242  0.63715708  0.66558912    -0.81900
O906        O  0.07396425  0.56917174  0.70267456    -0.75400
Al907      Al  0.15290990  0.59730820  0.68927840     1.90100
O908        O  0.08420973  0.62485086  0.66411590    -0.74500
O909        O  0.07276970  0.52954240  0.65137505    -0.74300
O910        O  0.09167446  0.58325269  0.61611978    -0.80000
O911        O  0.11967285  0.49807217  0.65531520    -0.78200
O912        O  0.12996434  0.56826023  0.66438123    -1.14300
O913        O  0.18148882  0.52120244  0.67901437    -0.73500
C914        C  0.18598057  0.53390454  0.70634455     0.97200
C915        C  0.10820647  0.64620636  0.65998651     0.93600
Al916      Al  0.08466339  0.57560359  0.65919436     1.55600
O917        O  0.19480584  0.59851532  0.66547069    -0.78200
C918        C  0.08750730  0.50058153  0.64960718     0.97700
C919        C  0.08670131  0.58873372  0.72349372     0.92600
O920        O  0.11573585  0.60313649  0.71913216    -0.83500
O921        O  0.07230187  0.86181546  0.53116415    -0.82900
C922        C  0.05104726  0.87967801  0.66049507     0.96400
O923        O  0.05300863  0.90365288  0.64044292    -0.72100
O924        O  0.10774092  0.89998938  0.60493583    -0.75600
Al925      Al  0.06012379  0.90405306  0.59622476     1.49000
C926        C  0.13104499  0.88199959  0.59176876     0.91700
O927        O  0.09384291  0.80145221  0.59802790    -0.81900
O928        O  0.99585946  0.82399833  0.57499584    -0.75400
Al929      Al  0.08065397  0.83342397  0.56612744     1.90100
O930        O  0.04162658  0.79256716  0.61614687    -0.74500
O931        O  0.98945476  0.87680140  0.61805142    -0.74300
O932        O  0.04153800  0.84930255  0.65289136    -0.80000
O933        O  0.01256442  0.91645011  0.58848752    -0.78200
O934        O  0.05364886  0.85855078  0.59174732    -1.14300
O935        O  0.07067749  0.91297855  0.55341326    -0.73500
C936        C  0.07534447  0.89416035  0.52948497     0.97200
C937        C  0.07282673  0.78297271  0.61298530     0.93600
Al938      Al  0.01987334  0.83746972  0.61348397     1.55600
O939        O  0.12314847  0.85667656  0.57465436    -0.78200
C940        C  0.98838256  0.90682693  0.60654111     0.97700
C941        C  0.01069776  0.80769055  0.55241274     0.92600
O942        O  0.04351829  0.80534677  0.55102350    -0.83500
O943        O  0.08727598  0.65227860  0.96190307    -0.82900
C944        C  0.03712069  0.62791580  0.84539014     0.96400
O945        O  0.05759292  0.61398067  0.86485262    -0.72100
O946        O  0.10342990  0.61348577  0.91004309    -0.75600
Al947      Al  0.05407944  0.61335295  0.90876147     1.49000
C948        C  0.12408849  0.63692339  0.90227615     0.91700
O949        O  0.07660035  0.72281077  0.90177142    -0.81900
O950        O  0.99843768  0.70939005  0.92748583    -0.75400
Al951      Al  0.07813763  0.68505314  0.92938925     1.90100
O952        O  0.03365315  0.71279409  0.87016479    -0.74500
O953        O  0.97537842  0.64547440  0.90937806    -0.74300
O954        O  0.01436285  0.65026766  0.85396220    -0.80000
O955        O  0.00802607  0.59984867  0.90509949    -0.78200
O956        O  0.04651815  0.65909709  0.91019030    -1.14300
O957        O  0.05129284  0.60936532  0.95369886    -0.73500
C958        C  0.07231448  0.62520211  0.97144647     0.97200
C959        C  0.05976108  0.73018089  0.87758360     0.93600
Al960      Al  0.00876888  0.67789779  0.89210313     1.55600
O961        O  0.11505035  0.66821087  0.90377822    -0.78200
C962        C  0.97830210  0.61299498  0.90627301     0.97700
C963        C  0.01525362  0.71753015  0.95214952     0.92600
O964        O  0.04548129  0.70594488  0.95674877    -0.83500
O965        O  0.28249872  0.94834706  0.70500140    -0.82900
C966        C  0.35447149  0.95338739  0.59471587     0.96400
O967        O  0.32485403  0.96227815  0.60500981    -0.72100
O968        O  0.27045310  0.95578724  0.64197803    -0.75600
Al969      Al  0.31440981  0.97883053  0.64607244     1.49000
C970        C  0.26397855  0.92389857  0.63947631     0.91700
O971        O  0.33903629  0.87286901  0.67763621    -0.81900
O972        O  0.39256503  0.92212901  0.69891777    -0.75400
Al973      Al  0.31332226  0.91374512  0.68797985     1.90100
O974        O  0.37651304  0.88991744  0.64304967    -0.74500
O975        O  0.39475716  0.98258484  0.66823743    -0.74300
O976        O  0.37976774  0.94847245  0.61300335    -0.80000
O977        O  0.35351932  0.00992965  0.64349595    -0.78200
O978        O  0.33692336  0.94324172  0.66396258    -1.14300
O979        O  0.30090894  0.99830121  0.68635843    -0.73500
C980        C  0.28327699  0.98113494  0.70621333     0.97200
C981        C  0.36286444  0.86575822  0.65837536     0.93600
Al982      Al  0.38186915  0.93648845  0.65666323     1.55600
O983        O  0.28265934  0.90255852  0.65439670    -0.78200
C984        C  0.38455412  0.00873897  0.65295180     0.97700
C985        C  0.37485504  0.91784274  0.72377815     0.92600
O986        O  0.34209211  0.92040874  0.72358865    -0.83500
O987        O  0.18192816  0.94742990  0.80022663    -0.82900
C988        C  0.10507228  0.94504151  0.91008225     0.96400
O989        O  0.12497114  0.96994377  0.90279915    -0.72100
O990        O  0.18672893  0.95564755  0.88321337    -0.75600
Al991      Al  0.15018108  0.98043948  0.86478417     1.49000
C992        C  0.20334599  0.92875095  0.87621315     0.91700
O993        O  0.13927094  0.87324235  0.84465724    -0.81900
O994        O  0.08254579  0.94517077  0.80120245    -0.75400
Al995      Al  0.15838219  0.91314085  0.82360807     1.90100
O996        O  0.08620935  0.88851451  0.83724544    -0.74500
O997        O  0.07150726  0.98179979  0.85445072    -0.74300
O998        O  0.08932627  0.92746291  0.88924766    -0.80000
O999        O  0.11637238  0.01447888  0.85200555    -0.78200
O1000       O  0.13220635  0.94400321  0.84435549    -1.14300
O1001       O  0.17929569  0.99467470  0.82965335    -0.73500
C1002       C  0.19031303  0.97846332  0.80543790     0.97200
C1003       C  0.10775842  0.86503416  0.84269819     0.93600
Al1004     Al  0.08665399  0.93681524  0.84538488     1.55600
O1005       O  0.19461619  0.91065793  0.85306070    -0.78200
C1006       C  0.08440075  0.01109640  0.85716227     0.97700
C1007       C  0.09874156  0.92586835  0.78158189     0.92600
O1008       O  0.12633159  0.90989718  0.78950738    -0.83500
O1009       O  0.62575586  0.41944411  0.72753399    -0.82900
C1010       C  0.62009454  0.44797668  0.59802346     0.96400
O1011       O  0.59440719  0.44467483  0.61624456    -0.72100
O1012       O  0.59347774  0.38815232  0.64897157    -0.75600
Al1013     Al  0.58983863  0.43567059  0.65995326     1.49000
C1014       C  0.60977056  0.36387680  0.66209627     0.91700
O1015       O  0.69076063  0.39905071  0.66401577    -0.81900
O1016       O  0.67148767  0.49608547  0.68871851    -0.75400
Al1017     Al  0.65682535  0.41169179  0.69399282     1.90100
O1018       O  0.70290382  0.45097508  0.64713422    -0.74500
O1019       O  0.62064954  0.50706267  0.64383856    -0.74300
O1020       O  0.64970825  0.45625647  0.60817032    -0.80000
O1021       O  0.57784433  0.48292235  0.66883021    -0.78200
O1022       O  0.63499854  0.44073901  0.66788494    -1.14300
O1023       O  0.57657805  0.42457827  0.70195229    -0.73500
C1024       C  0.59313749  0.41956327  0.72701884     0.97200
C1025       C  0.71092700  0.41945493  0.65031257     0.93600
Al1026     Al  0.65897357  0.47477748  0.64894778     1.55600
O1027       O  0.63329318  0.37040494  0.68161333    -0.78200
C1028       C  0.58923230  0.50761228  0.65247635     0.97700
C1029       C  0.68680883  0.47955542  0.71062276     0.92600
O1030       O  0.68523602  0.44684143  0.71216616    -0.83500
O1031       O  0.84279538  0.42465785  0.78862378    -0.82900
C1032       C  0.85063744  0.45137489  0.91924233     0.96400
O1033       O  0.87576428  0.44804510  0.90037603    -0.72100
O1034       O  0.87400127  0.39094885  0.86820340    -0.75600
Al1035     Al  0.87882891  0.43793274  0.85666292     1.49000
C1036       C  0.85810768  0.36729722  0.85406855     0.91700
O1037       O  0.77837096  0.40286502  0.85207741    -0.81900
O1038       O  0.79555293  0.50000447  0.82997217    -0.75400
Al1039     Al  0.81192296  0.41604259  0.82232685     1.90100
O1040       O  0.76632992  0.45397017  0.87182653    -0.74500
O1041       O  0.84837699  0.51004598  0.87268778    -0.74300
O1042       O  0.82060677  0.45945573  0.90966962    -0.80000
O1043       O  0.89072519  0.48456471  0.84693728    -0.78200
O1044       O  0.83364159  0.44414641  0.84912976    -1.14300
O1045       O  0.89173453  0.42546323  0.81470419    -0.73500
C1046       C  0.87537832  0.42243894  0.78930245     0.97200
C1047       C  0.75838723  0.42268139  0.86722431     0.93600
Al1048     Al  0.80986116  0.47811274  0.86906240     1.55600
O1049       O  0.83578929  0.37450519  0.83357994    -0.78200
C1050       C  0.87946676  0.51000245  0.86283781     0.97700
C1051       C  0.78040528  0.48381504  0.80789312     0.92600
O1052       O  0.78297378  0.45129426  0.80547147    -0.83500
O1053       O  0.93016178  0.31402954  0.55351515    -0.82900
C1054       C  0.93059777  0.38506360  0.66923623     0.96400
O1055       O  0.95248285  0.36191660  0.66129955    -0.72100
O1056       O  0.92940334  0.30138852  0.64401210    -0.75600
Al1057     Al  0.95814627  0.33444251  0.62368912     1.49000
C1058       C  0.90772514  0.28164461  0.63155394     0.91700
O1059       O  0.85542429  0.34294826  0.60535261    -0.81900
O1060       O  0.91821753  0.40714028  0.55990447    -0.75400
Al1061     Al  0.89407097  0.32961569  0.58031822     1.90100
O1062       O  0.86618936  0.39881415  0.60425112    -0.74500
O1063       O  0.96338750  0.41266700  0.60804931    -0.74300
O1064       O  0.91194482  0.40015535  0.64912749    -0.80000
O1065       O  0.99322763  0.36421681  0.60785713    -0.78200
O1066       O  0.92308169  0.35499980  0.60301870    -1.14300
O1067       O  0.96966551  0.30286192  0.58961293    -0.73500
C1068       C  0.95785848  0.29907284  0.56199192     0.97200
C1069       C  0.84573076  0.37397647  0.60912460     0.93600
Al1070     Al  0.91589625  0.40077500  0.60504913     1.55600
O1071       O  0.89636941  0.28834684  0.60459186    -0.78200
C1072       C  0.99215167  0.39679903  0.60856738     0.97700
C1073       C  0.89695351  0.39240512  0.54168300     0.92600
O1074       O  0.88341104  0.36423798  0.54992641    -0.83500
O1075       O  0.92279896  0.19499836  0.96900199    -0.82900
C1076       C  0.92679074  0.13384770  0.84842291     0.96400
O1077       O  0.94889724  0.15522862  0.85821567    -0.72100
O1078       O  0.92362182  0.21262111  0.88088389    -0.75600
Al1079     Al  0.95316195  0.17834341  0.89805293     1.49000
C1080       C  0.89946539  0.23003697  0.89325160     0.91700
O1081       O  0.84810767  0.16432126  0.91734889    -0.81900
O1082       O  0.91658936  0.09839908  0.95228601    -0.75400
Al1083     Al  0.88759769  0.17779549  0.94179989     1.90100
O1084       O  0.86241612  0.10980909  0.91180006    -0.74500
O1085       O  0.95916344  0.09944798  0.90338248    -0.74300
O1086       O  0.90725645  0.11763710  0.86681879    -0.80000
O1087       O  0.98921361  0.14635525  0.91089119    -0.78200
O1088       O  0.91801217  0.15563734  0.91668904    -1.14300
O1089       O  0.96345596  0.20705044  0.93424699    -0.73500
C1090       C  0.95024166  0.21083698  0.96145701     0.97200
C1091       C  0.84011798  0.13376900  0.90985539     0.93600
Al1092     Al  0.91212881  0.11043610  0.90941529     1.55600
O1093       O  0.88636190  0.22041692  0.91896158    -0.78200
C1094       C  0.98797350  0.11418691  0.90526924     0.97700
C1095       C  0.89718537  0.11065521  0.97364006     0.92600
O1096       O  0.88192340  0.13963252  0.97038353    -0.83500
O1097       O  0.62466868  0.08993358  0.78534783    -0.82900
C1098       C  0.60841336  0.05797078  0.91504882     0.96400
O1099       O  0.58505670  0.06242976  0.89479575    -0.72100
O1100       O  0.58812464  0.12161420  0.86512583    -0.75600
Al1101     Al  0.58496857  0.07511194  0.85133780     1.49000
C1102       C  0.60385466  0.14558419  0.85114638     0.91700
O1103       O  0.68534508  0.11115376  0.85160175    -0.81900
O1104       O  0.66947439  0.01406647  0.82634411    -0.75400
Al1105     Al  0.65349859  0.09813839  0.82023293     1.90100
O1106       O  0.69644931  0.05953394  0.87042785    -0.74500
O1107       O  0.61433862  0.00326605  0.86659391    -0.74300
O1108       O  0.63944274  0.05264678  0.90596550    -0.80000
O1109       O  0.57570518  0.02921161  0.83783433    -0.78200
O1110       O  0.63053841  0.06963140  0.84556353    -1.14300
O1111       O  0.57452584  0.08986616  0.80990202    -0.73500
C1112       C  0.59218335  0.09336285  0.78519234     0.97200
C1113       C  0.70447479  0.09102241  0.86700983     0.93600
Al1114     Al  0.65306090  0.03522280  0.86538477     1.55600
O1115       O  0.62787308  0.13894799  0.83169124    -0.78200
C1116       C  0.58446362  0.00363019  0.85432800     0.97700
C1117       C  0.68554508  0.03025212  0.80477471     0.92600
O1118       O  0.68368781  0.06296385  0.80320429    -0.83500
O1119       O  0.84498760  0.08752219  0.72971768    -0.82900
C1120       C  0.86081743  0.05712313  0.59930650     0.96400
O1121       O  0.88414077  0.06074831  0.61969599    -0.72100
O1122       O  0.88037119  0.12013510  0.64941736    -0.75600
Al1123     Al  0.88426345  0.07350163  0.66315764     1.49000
C1124       C  0.86510964  0.14422968  0.66424175     0.91700
O1125       O  0.78488608  0.11136827  0.66439439    -0.81900
O1126       O  0.79906917  0.01369403  0.68750259    -0.75400
Al1127     Al  0.81620667  0.09712254  0.69520189     1.90100
O1128       O  0.77330224  0.06050700  0.64415508    -0.74500
O1129       O  0.85482300  0.00208881  0.64765700    -0.74300
O1130       O  0.82983099  0.05224872  0.60829788    -0.80000
O1131       O  0.89359310  0.02745817  0.67629430    -0.78200
O1132       O  0.83881702  0.06854141  0.66918980    -1.14300
O1133       O  0.89489091  0.08857357  0.70483085    -0.73500
C1134       C  0.87724913  0.09191762  0.72970042     0.97200
C1135       C  0.76576158  0.09211774  0.64849876     0.93600
Al1136     Al  0.81613427  0.03487888  0.64885937     1.55600
O1137       O  0.84191615  0.13756781  0.68433546    -0.78200
C1138       C  0.88469017  0.00177953  0.65997367     0.97700
C1139       C  0.78297896  0.03004699  0.70924664     0.92600
O1140       O  0.78563970  0.06259398  0.71161795    -0.83500
O1141       O  0.54038477  0.31578667  0.96399729    -0.82900
C1142       C  0.54144733  0.38582623  0.84867642     0.96400
O1143       O  0.51834348  0.36427253  0.85663995    -0.72100
O1144       O  0.53762203  0.30244081  0.87538712    -0.75600
Al1145     Al  0.51047877  0.33851209  0.89475882     1.49000
C1146       C  0.56081512  0.28331634  0.88694111     0.91700
O1147       O  0.61482552  0.34455278  0.91195617    -0.81900
O1148       O  0.55069852  0.40942051  0.95765101    -0.75400
Al1149     Al  0.57591718  0.33167002  0.93726581     1.90100
O1150       O  0.60442703  0.40024936  0.91531803    -0.74500
O1151       O  0.50909446  0.41674415  0.90750715    -0.74300
O1152       O  0.56053386  0.40036362  0.86875439    -0.80000
O1153       O  0.47561069  0.37223059  0.90877686    -0.78200
O1154       O  0.54660304  0.35749720  0.91497812    -1.14300
O1155       O  0.49786948  0.30852834  0.92988433    -0.73500
C1156       C  0.51168865  0.30256322  0.95651403     0.97200
C1157       C  0.62478957  0.37541656  0.90919270     0.93600
Al1158     Al  0.55503747  0.40274377  0.91267540     1.55600
O1159       O  0.57376107  0.29105626  0.91291953    -0.78200
C1160       C  0.47915698  0.40464758  0.90604495     0.97700
C1161       C  0.57147104  0.39434269  0.97634121     0.92600
O1162       O  0.58581208  0.36622719  0.96799661    -0.83500
O1163       O  0.54621110  0.18934387  0.54388051    -0.82900
C1164       C  0.54231638  0.13154458  0.66606716     0.96400
O1165       O  0.51929244  0.15127548  0.65486818    -0.72100
O1166       O  0.54437172  0.20911922  0.63305587    -0.75600
Al1167     Al  0.51632479  0.17392407  0.61488996     1.49000
C1168       C  0.56765082  0.22727140  0.62049071     0.91700
O1169       O  0.62192511  0.16506833  0.59666681    -0.81900
O1170       O  0.56076520  0.09381264  0.56311804    -0.75400
Al1171     Al  0.58222567  0.17523202  0.57182737     1.90100
O1172       O  0.61125872  0.11041184  0.60542798    -0.74500
O1173       O  0.51513923  0.09484960  0.60976454    -0.74300
O1174       O  0.56406804  0.11617371  0.64875558    -0.80000
O1175       O  0.48271165  0.14023056  0.60032876    -0.78200
O1176       O  0.55319190  0.15228296  0.59725054    -1.14300
O1177       O  0.50605406  0.20259890  0.57893355    -0.73500
C1178       C  0.51894613  0.20583974  0.55165353     0.97200
C1179       C  0.63169723  0.13566153  0.60593754     0.93600
Al1180     Al  0.56186556  0.10777548  0.60582265     1.55600
O1181       O  0.58008257  0.21849359  0.59409105    -0.78200
C1182       C  0.48547895  0.10805517  0.60608425     0.97700
C1183       C  0.57941768  0.10643287  0.54162404     0.92600
O1184       O  0.59165700  0.13661974  0.54411537    -0.83500
C1185       C  0.49791844  0.24150599  0.97113703    -0.03000
C1186       C  0.49692203  0.27707253  0.97890801     0.06700
C1187       C  0.49202961  0.28677920  0.01055815    -0.03100
C1188       C  0.50350323  0.26757583  0.53823026    -0.03100
C1189       C  0.50441974  0.23210708  0.52956281     0.06800
C1190       C  0.49580865  0.22301823  0.49845536    -0.03300
Br1191     Br  0.49016098  0.17500769  0.48749718    -0.01800
Br1192     Br  0.50080079  0.22710772  0.92784714    -0.01900
Br1193     Br  0.51302305  0.28199766  0.58049780    -0.01900
Br1194     Br  0.48586206  0.33529448  0.02066486    -0.01900
C1195       C  0.72904441  0.12094129  0.60770328    -0.03000
C1196       C  0.73255478  0.10625826  0.63779735     0.06700
C1197       C  0.70455901  0.10713979  0.65904739    -0.03100
C1198       C  0.67182470  0.11790546  0.64879747    -0.03100
C1199       C  0.66719298  0.12991581  0.61778937     0.06800
C1200       C  0.69637311  0.13347246  0.59784094    -0.03300
Br1201     Br  0.69176816  0.15513103  0.55722936    -0.01800
Br1202     Br  0.76919487  0.12480517  0.58075996    -0.01900
Br1203     Br  0.63408814  0.11702257  0.67825556    -0.01900
Br1204     Br  0.71109848  0.09516020  0.70277993    -0.01900
C1205       C  0.56028677  0.19403578  0.84837165    -0.03000
C1206       C  0.59361636  0.18196294  0.85690133     0.06700
C1207       C  0.61768946  0.20511258  0.86959529    -0.03100
C1208       C  0.60783877  0.23957996  0.87583150    -0.03100
C1209       C  0.57301802  0.25071865  0.87133967     0.06800
C1210       C  0.54981263  0.22831486  0.85566100    -0.03300
Br1211     Br  0.50347949  0.24335816  0.84456206    -0.01800
Br1212     Br  0.52928671  0.16375529  0.82594475    -0.01900
Br1213     Br  0.64325517  0.27161464  0.88883018    -0.01900
Br1214     Br  0.66379164  0.18911576  0.88021867    -0.01900
C1215       C  0.76948950  0.00974428  0.76415805    -0.03000
C1216       C  0.75938868  0.01269180  0.73237834     0.06700
C1217       C  0.72386393  0.00894913  0.72514765    -0.03100
C1218       C  0.69849980  0.01030051  0.74947448    -0.03100
C1219       C  0.70867991  0.01245806  0.78126997     0.06800
C1220       C  0.74413067  0.00795011  0.78838371    -0.03300
Br1221     Br  0.75764951  0.00188392  0.83162756    -0.01800
Br1222     Br  0.81804756  0.01101010  0.77449580    -0.01900
Br1223     Br  0.64977324  0.01139857  0.73950073    -0.01900
Br1224     Br  0.71008183  0.00442054  0.68182931    -0.01900
C1225       C  0.62484923  0.06120952  0.97297646    -0.03000
C1226       C  0.59895703  0.06091263  0.94938784     0.06700
C1227       C  0.56362522  0.06533272  0.95928038    -0.03100
C1228       C  0.55581815  0.07687280  0.99007195    -0.03100
C1229       C  0.58696948  0.08623977  0.51279628     0.06800
C1230       C  0.62100852  0.07488619  0.50584185    -0.03300
Br1231     Br  0.65507309  0.07357668  0.53886470    -0.01800
Br1232     Br  0.67045085  0.04127061  0.96583877    -0.01900
Br1233     Br  0.50827177  0.07994098  0.00478861    -0.01900
Br1234     Br  0.52498262  0.05386743  0.93255664    -0.01900
C1235       C  0.58116782  0.13850370  0.74506630    -0.03000
C1236       C  0.57482495  0.10481256  0.75649369     0.06700
C1237       C  0.55121326  0.08309857  0.74100960    -0.03100
C1238       C  0.53635892  0.09400286  0.71255909    -0.03100
C1239       C  0.54525951  0.12638429  0.69986697     0.06800
C1240       C  0.56591544  0.14943302  0.71696320    -0.03300
Br1241     Br  0.57707845  0.19430963  0.69987359    -0.01800
Br1242     Br  0.61228322  0.16945865  0.76644779    -0.01900
Br1243     Br  0.50504424  0.06431560  0.68997774    -0.01900
Br1244     Br  0.54180141  0.03744518  0.75714724    -0.01900
C1245       C  0.85362941  0.07536260  0.51115525    -0.03000
C1246       C  0.89133573  0.09122410  0.00287837     0.06700
C1247       C  0.91421206  0.07743984  0.52546613    -0.03100
C1248       C  0.90595757  0.06455343  0.55564885    -0.03100
C1249       C  0.87052783  0.06069816  0.56504222     0.06800
C1250       C  0.84499295  0.06214620  0.54112486    -0.03300
Br1251     Br  0.79924889  0.04311857  0.54738476    -0.01800
Br1252     Br  0.82521765  0.07310602  0.97638476    -0.01900
Br1253     Br  0.94401922  0.04973737  0.58214977    -0.01900
Br1254     Br  0.96194905  0.08043653  0.51171605    -0.01900
C1255       C  0.88585296  0.13784332  0.76988822    -0.03000
C1256       C  0.89399882  0.10428190  0.75838705     0.06700
C1257       C  0.91788658  0.08306574  0.77442399    -0.03100
C1258       C  0.93212906  0.09465588  0.80285509    -0.03100
C1259       C  0.92240294  0.12732159  0.81503321     0.06800
C1260       C  0.90009727  0.14929193  0.79821341    -0.03300
Br1261     Br  0.88554597  0.19331891  0.81596806    -0.01800
Br1262     Br  0.85404469  0.16824723  0.74824516    -0.01900
Br1263     Br  0.96292127  0.06497952  0.82656408    -0.01900
Br1264     Br  0.92833835  0.03701242  0.75919707    -0.01900
C1265       C  0.80015261  0.11042338  0.86841292    -0.03000
C1266       C  0.80463102  0.12529536  0.89858193     0.06700
C1267       C  0.77507714  0.13067230  0.91799427    -0.03100
C1268       C  0.74220600  0.11865143  0.90826183    -0.03100
C1269       C  0.73829678  0.10378358  0.87816678     0.06800
C1270       C  0.76690601  0.10220186  0.85759642    -0.03300
Br1271     Br  0.76030320  0.09168996  0.81358361    -0.01800
Br1272     Br  0.83874977  0.10055330  0.84097214    -0.01900
Br1273     Br  0.70237214  0.12333375  0.93559681    -0.01900
Br1274     Br  0.77953912  0.15360602  0.95813057    -0.01900
C1275       C  0.85040720  0.20593693  0.65131884    -0.03000
C1276       C  0.87543515  0.18064052  0.65931008     0.06700
C1277       C  0.91003776  0.19077905  0.66482870    -0.03100
C1278       C  0.92004003  0.22543248  0.65987166    -0.03100
C1279       C  0.89594931  0.24946805  0.64733365     0.06800
C1280       C  0.86063300  0.24024435  0.64558437    -0.03300
Br1281     Br  0.82573511  0.27524397  0.63760562    -0.01800
Br1282     Br  0.80230921  0.19350410  0.64637285    -0.01900
Br1283     Br  0.96650469  0.23946806  0.67075403    -0.01900
Br1284     Br  0.94382410  0.15736004  0.67959436    -0.01900
C1285       C  0.97211222  0.23827939  0.54739822    -0.03000
C1286       C  0.97362034  0.27372465  0.53994515     0.06700
C1287       C  0.98169531  0.28353038  0.50892183    -0.03100
C1288       C  0.96831129  0.27173642  0.97583676    -0.03100
C1289       C  0.96490035  0.23643470  0.98424935     0.06800
C1290       C  0.97077067  0.21348715  0.52322320    -0.03300
Br1291     Br  0.96229490  0.16589399  0.53384312    -0.01800
Br1292     Br  0.96774661  0.22354905  0.59030557    -0.01900
Br1293     Br  0.96706495  0.28567453  0.93248684    -0.01900
Br1294     Br  0.98808784  0.33192684  0.49927635    -0.01900
C1295       C  0.91119443  0.43802083  0.74222248    -0.03000
C1296       C  0.89431909  0.41285565  0.76045529     0.06700
C1297       C  0.89529076  0.37780555  0.75102775    -0.03100
C1298       C  0.91237312  0.36807974  0.72315332    -0.03100
C1299       C  0.92483128  0.39377358  0.70264775     0.06800
C1300       C  0.92536956  0.42871121  0.71270263    -0.03300
Br1301     Br  0.94574152  0.46358247  0.68611002    -0.01800
Br1302     Br  0.91374437  0.48508984  0.75734586    -0.01900
Br1303     Br  0.91666036  0.31951672  0.71286500    -0.01900
Br1304     Br  0.87114769  0.34288723  0.77475499    -0.01900
C1305       C  0.87273219  0.46561184  0.97308374    -0.03000
C1306       C  0.85725763  0.44204017  0.95221033     0.06700
C1307       C  0.85567910  0.40689851  0.96005889    -0.03100
C1308       C  0.87185256  0.39455502  0.98729447    -0.03100
C1309       C  0.88558821  0.40754679  0.51094660     0.06800
C1310       C  0.87685218  0.44325506  0.50770794    -0.03300
Br1311     Br  0.88283242  0.47486511  0.54242184    -0.01800
Br1312     Br  0.87537069  0.51376186  0.96140448    -0.01900
Br1313     Br  0.87577288  0.34459997  0.99150859    -0.01900
Br1314     Br  0.83147323  0.37527734  0.93281355    -0.01900
C1315       C  0.90160461  0.31928083  0.85566576    -0.03000
C1316       C  0.86718346  0.33074689  0.86055975     0.06700
C1317       C  0.84194059  0.30713322  0.87104985    -0.03100
C1318       C  0.85211683  0.27362860  0.88077444    -0.03100
C1319       C  0.88736627  0.26292251  0.87832114     0.06800
C1320       C  0.91128751  0.28501701  0.86293361    -0.03300
Br1321     Br  0.95731463  0.26939891  0.85063422    -0.01800
Br1322     Br  0.93564815  0.35043102  0.83807647    -0.01900
Br1323     Br  0.81694015  0.24201030  0.89544351    -0.01900
Br1324     Br  0.79350649  0.32067824  0.87271896    -0.01900
C1325       C  0.70202491  0.39321292  0.85691018    -0.03000
C1326       C  0.72479559  0.40916462  0.87843965     0.06700
C1327       C  0.71537877  0.41171084  0.91049046    -0.03100
C1328       C  0.68295799  0.39946353  0.92073945    -0.03100
C1329       C  0.66039740  0.38350105  0.89927239     0.06800
C1330       C  0.67019384  0.37981576  0.86748631    -0.03300
Br1331     Br  0.63912584  0.35810726  0.83810456    -0.01800
Br1332     Br  0.71276412  0.39220957  0.81240255    -0.01900
Br1333     Br  0.66919822  0.40457494  0.96429824    -0.01900
Br1334     Br  0.74710420  0.43089027  0.94068916    -0.01900
C1335       C  0.76862923  0.39277284  0.66130325    -0.03000
C1336       C  0.74489837  0.40652621  0.63932611     0.06700
C1337       C  0.75380489  0.40768118  0.60711344    -0.03100
C1338       C  0.78628857  0.39496877  0.59693643    -0.03100
C1339       C  0.81011217  0.38196598  0.61900576     0.06800
C1340       C  0.80112063  0.38027775  0.65104373    -0.03300
Br1341     Br  0.83385399  0.36188478  0.68094363    -0.01800
Br1342     Br  0.75813197  0.39377622  0.70582244    -0.01900
Br1343     Br  0.79810239  0.39465294  0.55271003    -0.01900
Br1344     Br  0.72191888  0.42681093  0.57683903    -0.01900
C1345       C  0.74435845  0.50186122  0.72823216    -0.03000
C1346       C  0.70873862  0.49690929  0.73466322     0.06700
C1347       C  0.69719887  0.49839342  0.76622290    -0.03100
C1348       C  0.72125686  0.50123125  0.79106132    -0.03100
C1349       C  0.75721809  0.50091568  0.78468972     0.06800
C1350       C  0.76850559  0.50349992  0.75316135    -0.03300
Br1351     Br  0.81756149  0.50514855  0.74435243    -0.01800
Br1352     Br  0.76056720  0.50175189  0.68524476    -0.01900
Br1353     Br  0.70532763  0.50096683  0.83416533    -0.01900
Br1354     Br  0.64877234  0.49220238  0.77559137    -0.01900
C1355       C  0.62528803  0.30335120  0.64400357    -0.03000
C1356       C  0.60025169  0.32741505  0.65507005     0.06700
C1357       C  0.56569853  0.31648130  0.65958100    -0.03100
C1358       C  0.55599056  0.28234657  0.65183604    -0.03100
C1359       C  0.57972879  0.26002783  0.63586345     0.06800
C1360       C  0.61491162  0.27039955  0.63320141    -0.03300
Br1361     Br  0.64996136  0.23930869  0.61627815    -0.01800
Br1362     Br  0.67390207  0.31542808  0.64319488    -0.01900
Br1363     Br  0.50995978  0.26717697  0.66357013    -0.01900
Br1364     Br  0.53139695  0.34808578  0.67713256    -0.01900
C1365       C  0.61696125  0.40283150  0.55794347    -0.03000
C1366       C  0.61471029  0.43814322  0.56511167     0.06700
C1367       C  0.59881336  0.46111613  0.54387452    -0.03100
C1368       C  0.58627145  0.44868942  0.51478294    -0.03100
C1369       C  0.58185181  0.40927734  0.00749276     0.06800
C1370       C  0.59986845  0.38957332  0.53168580    -0.03300
Br1371     Br  0.58675989  0.33702019  0.02974021    -0.01800
Br1372     Br  0.64321482  0.37233606  0.58481894    -0.01900
Br1373     Br  0.56836260  0.47843929  0.98168946    -0.01900
Br1374     Br  0.59424684  0.50942882  0.55511570    -0.01900
C1375       C  0.57319431  0.37593929  0.76554853    -0.03000
C1376       C  0.57439958  0.41083882  0.75590186     0.06700
C1377       C  0.55979009  0.43700255  0.77489058    -0.03100
C1378       C  0.54767139  0.42869591  0.80515826    -0.03100
C1379       C  0.54739829  0.39386639  0.81528254     0.06800
C1380       C  0.55802344  0.36732460  0.79447866    -0.03300
Br1381     Br  0.55446942  0.31918613  0.80598975    -0.01800
Br1382     Br  0.59444635  0.33974517  0.74045934    -0.01900
Br1383     Br  0.53247369  0.46516285  0.83293302    -0.01900
Br1384     Br  0.55768796  0.48411210  0.75981874    -0.01900
C1385       C  0.03703621  0.03143356  0.89417829    -0.03000
C1386       C  0.06200006  0.03957002  0.87050592     0.06700
C1387       C  0.06544055  0.07458475  0.86127530    -0.03100
C1388       C  0.04260370  0.10034994  0.87378187    -0.03100
C1389       C  0.01906754  0.09212230  0.89837413     0.06800
C1390       C  0.01848785  0.05789868  0.90969108    -0.03300
Br1391     Br  0.99034911  0.04654440  0.94600977    -0.01800
Br1392     Br  0.02474876  0.98427171  0.90530608    -0.01900
Br1393     Br  0.04068573  0.14531466  0.85416539    -0.01900
Br1394     Br  0.09854860  0.08674695  0.82898377    -0.01900
C1395       C  0.40081413  0.07127404  0.64024735    -0.03000
C1396       C  0.40991428  0.03555847  0.64164810     0.06700
C1397       C  0.44131513  0.02474553  0.62679863    -0.03100
C1398       C  0.46127270  0.04839100  0.60941645    -0.03100
C1399       C  0.45520036  0.08449023  0.61200897     0.06800
C1400       C  0.42412443  0.09579619  0.62705712    -0.03300
Br1401     Br  0.41319464  0.14456070  0.63032900    -0.01800
Br1402     Br  0.35717422  0.08711680  0.65788565    -0.01900
Br1403     Br  0.49564474  0.03054898  0.57983370    -0.01900
Br1404     Br  0.45875881  0.97774173  0.62927976    -0.01900
C1405       C  0.22805124  0.00693824  0.72780734    -0.03000
C1406       C  0.26320784  0.99761697  0.73222113     0.06700
C1407       C  0.27517876  0.99203260  0.76296401    -0.03100
C1408       C  0.25139730  0.98896393  0.78802870    -0.03100
C1409       C  0.21552512  0.99416205  0.78310078     0.06800
C1410       C  0.20435955  0.00587636  0.75342098    -0.03300
Br1411     Br  0.15615585  0.01780883  0.74775207    -0.01800
Br1412     Br  0.21203952  0.01797888  0.68621616    -0.01900
Br1413     Br  0.26795985  0.97256648  0.82772405    -0.01900
Br1414     Br  0.32414216  0.98495051  0.76992175    -0.01900
C1415       C  0.95418679  0.55294225  0.90599839    -0.03000
C1416       C  0.94849038  0.58880264  0.90058715     0.06700
C1417       C  0.91856477  0.59873145  0.88328796    -0.03100
C1418       C  0.89543965  0.57320221  0.87169755    -0.03100
C1419       C  0.90389412  0.53752515  0.87387975     0.06800
C1420       C  0.93427840  0.52784573  0.89045021    -0.03300
Br1421     Br  0.95064506  0.48038805  0.89205918    -0.01800
Br1422     Br  0.98896275  0.53718290  0.93574106    -0.01900
Br1423     Br  0.85320905  0.58714563  0.85087190    -0.01900
Br1424     Br  0.90979196  0.64670997  0.87323560    -0.01900
C1425       C  0.05877602  0.82208443  0.85085136    -0.03000
C1426       C  0.09506042  0.82857663  0.84663756     0.06700
C1427       C  0.11810156  0.79963233  0.84532201    -0.03100
C1428       C  0.10599464  0.76626667  0.85291236    -0.03100
C1429       C  0.07052832  0.76090660  0.85930000     0.06800
C1430       C  0.04674170  0.78796361  0.85410877    -0.03300
Br1431     Br  0.99743931  0.77868075  0.85270758    -0.01800
Br1432     Br  0.02426602  0.85856770  0.85646008    -0.01900
Br1433     Br  0.13756440  0.72704303  0.85291956    -0.01900
Br1434     Br  0.16602335  0.80411340  0.83249010    -0.01900
C1435       C  0.97126335  0.96260213  0.63352897    -0.03000
C1436       C  0.96112414  0.93164546  0.61834427     0.06700
C1437       C  0.92600197  0.92156747  0.62057096    -0.03100
C1438       C  0.90109593  0.94304639  0.63601373    -0.03100
C1439       C  0.91119332  0.97449379  0.65070630     0.06800
C1440       C  0.94718743  0.98236003  0.65132621    -0.03300
Br1441     Br  0.96573289  0.01858590  0.67799081    -0.01800
Br1442     Br  0.01849932  0.97885953  0.63098180    -0.01900
Br1443     Br  0.85366017  0.92737303  0.63889109    -0.01900
Br1444     Br  0.91161643  0.87864016  0.60133080    -0.01900
C1445       C  0.17805066  0.92608010  0.59493363    -0.03000
C1446       C  0.16787328  0.89118821  0.59699034     0.06700
C1447       C  0.19264357  0.86587714  0.60550198    -0.03100
C1448       C  0.22508028  0.87609211  0.61749044    -0.03100
C1449       C  0.23330403  0.91185621  0.62055662     0.06800
C1450       C  0.21104599  0.93625676  0.60544950    -0.03300
Br1451     Br  0.22583877  0.98282311  0.59559149    -0.01800
Br1452     Br  0.14724972  0.95990732  0.57597538    -0.01900
Br1453     Br  0.25811550  0.83987070  0.62700718    -0.01900
Br1454     Br  0.18211231  0.81710550  0.60159792    -0.01900
C1455       C  0.98105081  0.73271470  0.50485293    -0.03000
C1456       C  0.00184646  0.74334659  0.97559665     0.06700
C1457       C  0.00836825  0.77889094  0.97060242    -0.03100
C1458       C  0.99955398  0.80194865  0.49526269    -0.03100
C1459       C  0.99159306  0.79083945  0.52600130     0.06800
C1460       C  0.97789929  0.75733046  0.52969762    -0.03300
Br1461     Br  0.95550381  0.74568534  0.56884661    -0.01800
Br1462     Br  0.96653627  0.68560454  0.51094725    -0.01900
Br1463     Br  0.00851616  0.85026184  0.48793226    -0.01900
Br1464     Br  0.02370626  0.79451994  0.93014441    -0.01900
C1465       C  0.03757541  0.90089039  0.71499653    -0.03000
C1466       C  0.06190264  0.88860960  0.69267185     0.06700
C1467       C  0.09754313  0.89263895  0.69840174    -0.03100
C1468       C  0.10898377  0.90926905  0.72566659    -0.03100
C1469       C  0.08503195  0.91851205  0.74967528     0.06800
C1470       C  0.04897247  0.91449831  0.74405407    -0.03300
Br1471     Br  0.01472223  0.92612928  0.77579887    -0.01800
Br1472     Br  0.98875745  0.89986453  0.70514965    -0.01900
Br1473     Br  0.15780593  0.92074993  0.72865403    -0.01900
Br1474     Br  0.13149752  0.87488362  0.66922197    -0.01900
C1475       C  0.09245327  0.95976198  0.96702156    -0.03000
C1476       C  0.10141978  0.93521461  0.94355271     0.06700
C1477       C  0.10901927  0.90087739  0.95240484    -0.03100
C1478       C  0.10664700  0.89095232  0.98399858    -0.03100
C1479       C  0.08784994  0.90977722  0.49987904     0.06800
C1480       C  0.07724914  0.94360092  0.49098781    -0.03300
Br1481     Br  0.04137856  0.96858305  0.51382787    -0.01800
Br1482     Br  0.09110413  0.00865997  0.95736901    -0.01900
Br1483     Br  0.13474117  0.84882573  0.49488279    -0.01900
Br1484     Br  0.12466171  0.86722685  0.92170709    -0.01900
C1485       C  0.04312488  0.47751251  0.61166178    -0.03000
C1486       C  0.06670968  0.47120331  0.63685723     0.06700
C1487       C  0.06982329  0.43714714  0.64870312    -0.03100
C1488       C  0.04764659  0.41075303  0.63748329    -0.03100
C1489       C  0.02394637  0.41777269  0.61282146     0.06800
C1490       C  0.02478916  0.45014574  0.59806188    -0.03300
Br1491     Br  0.99991609  0.45682496  0.55900067    -0.01800
Br1492     Br  0.03127526  0.52348849  0.59672007    -0.01900
Br1493     Br  0.04843681  0.36601460  0.65762601    -0.01900
Br1494     Br  0.10091658  0.42765515  0.68312826    -0.01900
C1495       C  0.04953878  0.64331799  0.78953366    -0.03000
C1496       C  0.04120446  0.61797347  0.81200415     0.06700
C1497       C  0.04289049  0.58249942  0.80357433    -0.03100
C1498       C  0.05634496  0.57239031  0.77395358    -0.03100
C1499       C  0.06697288  0.59785086  0.75235304     0.06800
C1500       C  0.06143469  0.63324407  0.75960501    -0.03300
Br1501     Br  0.07009963  0.66856895  0.72866547    -0.01800
Br1502     Br  0.04914646  0.69189388  0.80043433    -0.01900
Br1503     Br  0.06263845  0.52392249  0.76410496    -0.01900
Br1504     Br  0.02733582  0.54779701  0.83299303    -0.01900
C1505       C  0.11108588  0.61111618  0.55629812    -0.03000
C1506       C  0.10572177  0.57616592  0.56300835     0.06700
C1507       C  0.09264234  0.55411876  0.53967258    -0.03100
C1508       C  0.07849197  0.56844127  0.51193603    -0.03100
C1509       C  0.08189267  0.61205914  0.00311821     0.06800
C1510       C  0.09652597  0.62606931  0.52949751    -0.03300
Br1511     Br  0.07914147  0.68511802  0.02321581    -0.01800
Br1512     Br  0.14141243  0.63758345  0.58313411    -0.01900
Br1513     Br  0.07906608  0.54215362  0.97631106    -0.01900
Br1514     Br  0.09756106  0.50456349  0.54442011    -0.01900
C1515       C  0.11624224  0.71128530  0.66064548    -0.03000
C1516       C  0.09964775  0.68161355  0.64828614     0.06700
C1517       C  0.07462249  0.68605448  0.62419447    -0.03100
C1518       C  0.06859413  0.71894702  0.61132296    -0.03100
C1519       C  0.08363335  0.74845836  0.62461224     0.06800
C1520       C  0.10741088  0.74461424  0.64938631    -0.03300
Br1521     Br  0.12661391  0.78503417  0.66885400    -0.01800
Br1522     Br  0.14887836  0.70727869  0.69482737    -0.01900
Br1523     Br  0.04189541  0.72322220  0.57348562    -0.01900
Br1524     Br  0.04727383  0.64827335  0.60803361    -0.01900
C1525       C  0.43995415  0.48508724  0.87037177    -0.03000
C1526       C  0.40454458  0.47769269  0.86562832     0.06700
C1527       C  0.39281012  0.44421274  0.87439159    -0.03100
C1528       C  0.41647770  0.41944031  0.88751773    -0.03100
C1529       C  0.45044378  0.42967917  0.89667407     0.06800
C1530       C  0.45986898  0.46455378  0.89048857    -0.03300
Br1531     Br  0.49754861  0.48781314  0.91176358    -0.01800
Br1532     Br  0.46318767  0.52209470  0.84784714    -0.01900
Br1533     Br  0.40135693  0.37235140  0.89324842    -0.01900
Br1534     Br  0.34504614  0.43143607  0.86801630    -0.01900
C1535       C  0.21888493  0.61300018  0.90602077    -0.03000
C1536       C  0.22568296  0.60345586  0.87448559     0.06700
C1537       C  0.19917970  0.60738064  0.85164906    -0.03100
C1538       C  0.16610833  0.61927383  0.86075301    -0.03100
C1539       C  0.15922970  0.62721697  0.89244084     0.06800
C1540       C  0.18542048  0.62397297  0.91510166    -0.03300
Br1541     Br  0.17508175  0.63429719  0.95867470    -0.01800
Br1542     Br  0.25586409  0.61508408  0.93614354    -0.01900
Br1543     Br  0.13011100  0.62437259  0.82970379    -0.01900
Br1544     Br  0.20707103  0.59677560  0.80758017    -0.01900
C1545       C  0.23089211  0.51423508  0.78288947    -0.03000
C1546       C  0.26484357  0.52559481  0.77500795     0.06700
C1547       C  0.27391224  0.52790932  0.74276753    -0.03100
C1548       C  0.24842204  0.52393280  0.71937971    -0.03100
C1549       C  0.21323283  0.52011791  0.72783524     0.06800
C1550       C  0.20501751  0.51276090  0.75941005    -0.03300
Br1551     Br  0.15771113  0.50201810  0.77023956    -0.01800
Br1552     Br  0.21802967  0.50378404  0.82579980    -0.01900
Br1553     Br  0.26167513  0.52626336  0.67581772    -0.01900
Br1554     Br  0.32093461  0.53821160  0.73015648    -0.01900
C1555       C  0.55119083  0.59499703  0.62427212    -0.03000
C1556       C  0.52013178  0.58419406  0.60957762     0.06700
C1557       C  0.51456788  0.54827460  0.60621935    -0.03100
C1558       C  0.53472723  0.52408856  0.62295453    -0.03100
C1559       C  0.56492236  0.53461214  0.63930031     0.06800
C1560       C  0.57393186  0.57017310  0.63821380    -0.03300
Br1561     Br  0.61656549  0.58529434  0.65730414    -0.01800
Br1562     Br  0.56337652  0.64335218  0.62502348    -0.01900
Br1563     Br  0.51916593  0.47672370  0.62245433    -0.01900
Br1564     Br  0.48015874  0.53169966  0.57674617    -0.01900
C1565       C  0.41211629  0.58797261  0.48950863    -0.03000
C1566       C  0.38589994  0.59946286  0.51038164     0.06700
C1567       C  0.35473170  0.57666734  0.00603570    -0.03100
C1568       C  0.34514645  0.56508668  0.97576299    -0.03100
C1569       C  0.36923524  0.56704907  0.95069286     0.06800
C1570       C  0.40460581  0.57310587  0.95792125    -0.03300
Br1571     Br  0.44050801  0.56591802  0.92668045    -0.01800
Br1572     Br  0.46037970  0.59212920  0.50100680    -0.01900
Br1573     Br  0.29986135  0.54574101  0.96942284    -0.01900
Br1574     Br  0.32226068  0.57449714  0.04053541    -0.01900
C1575       C  0.42677588  0.58604038  0.71146096    -0.03000
C1576       C  0.42892949  0.62076947  0.70108006     0.06700
C1577       C  0.42344988  0.64796840  0.72286633    -0.03100
C1578       C  0.41158852  0.64053482  0.75347274    -0.03100
C1579       C  0.40556167  0.60596691  0.76261447     0.06800
C1580       C  0.41524743  0.57863579  0.74225801    -0.03300
Br1581     Br  0.41056196  0.53117454  0.75575758    -0.01800
Br1582     Br  0.43952393  0.54855920  0.68333747    -0.01900
Br1583     Br  0.40309423  0.67791019  0.78294582    -0.01900
Br1584     Br  0.42963529  0.69561503  0.71067464    -0.01900
C1585       C  0.25912997  0.57654944  0.60897987    -0.03000
C1586       C  0.23548600  0.59974446  0.62347653     0.06700
C1587       C  0.24414595  0.63509064  0.62546728    -0.03100
C1588       C  0.27766091  0.64623444  0.61713571    -0.03100
C1589       C  0.30407243  0.62141503  0.60982912     0.06800
C1590       C  0.29390560  0.58634134  0.60459101    -0.03300
Br1591     Br  0.32599614  0.55008816  0.59086786    -0.01800
Br1592     Br  0.24425291  0.53161706  0.59389400    -0.01900
Br1593     Br  0.28513965  0.69566223  0.61437080    -0.01900
Br1594     Br  0.20912691  0.66904177  0.63690427    -0.01900
C1595       C  0.42269304  0.78871947  0.63941944    -0.03000
C1596       C  0.40029949  0.76070585  0.64446111     0.06700
C1597       C  0.36788010  0.76634559  0.65870127    -0.03100
C1598       C  0.35547573  0.80032562  0.66394320    -0.03100
C1599       C  0.37606442  0.82927126  0.65491627     0.06800
C1600       C  0.41079850  0.82287461  0.64455335    -0.03300
Br1601     Br  0.44383679  0.85980543  0.63824823    -0.01800
Br1602     Br  0.46914006  0.78044813  0.62322085    -0.01900
Br1603     Br  0.31038611  0.80516037  0.68381556    -0.01900
Br1604     Br  0.34162680  0.72674929  0.67246184    -0.01900
C1605       C  0.50066492  0.96762463  0.88788841    -0.03000
C1606       C  0.50987530  0.93290079  0.89557408     0.06700
C1607       C  0.54392950  0.92116068  0.88820315    -0.03100
C1608       C  0.56803862  0.94351735  0.87345059    -0.03100
C1609       C  0.55796202  0.97734569  0.86404668     0.06800
C1610       C  0.52309446  0.98809101  0.86959352    -0.03300
Br1611     Br  0.50351241  0.02983663  0.85101240    -0.01800
Br1612     Br  0.45752289  0.98925814  0.90197632    -0.01900
Br1613     Br  0.61429550  0.92647274  0.86414848    -0.01900
Br1614     Br  0.55874411  0.87512572  0.90028151    -0.01900
C1615       C  0.35547966  0.75379331  0.86234874    -0.03000
C1616       C  0.37533138  0.75768266  0.88983174     0.06700
C1617       C  0.38200297  0.72874608  0.90869842    -0.03100
C1618       C  0.37574884  0.69533612  0.89725322    -0.03100
C1619       C  0.35890536  0.69056473  0.86803165     0.06800
C1620       C  0.34690960  0.72022335  0.85152553    -0.03300
Br1621     Br  0.31994046  0.71543100  0.81365353    -0.01800
Br1622     Br  0.33799824  0.79436022  0.84112770    -0.01900
Br1623     Br  0.39024471  0.65711430  0.92303329    -0.01900
Br1624     Br  0.39560491  0.73522214  0.95192741    -0.01900
C1625       C  0.44365245  0.77325553  0.53843625    -0.03000
C1626       C  0.46098066  0.74090432  0.53576399     0.06700
C1627       C  0.48561615  0.73625637  0.51131190    -0.03100
C1628       C  0.47894757  0.75067058  0.97337432    -0.03100
C1629       C  0.47087613  0.78527984  0.98157409     0.06800
C1630       C  0.45247165  0.80061914  0.51858869    -0.03300
Br1631     Br  0.43742794  0.84706896  0.52877788    -0.01800
Br1632     Br  0.40245051  0.77938890  0.56374195    -0.01900
Br1633     Br  0.48646081  0.73882107  0.92973027    -0.01900
Br1634     Br  0.50953050  0.69243535  0.50723416    -0.01900
C1635       C  0.24437193  0.88438984  0.89747324    -0.03000
C1636       C  0.23519470  0.91954276  0.89352112     0.06700
C1637       C  0.25945899  0.94547901  0.90117161    -0.03100
C1638       C  0.29446111  0.93624223  0.90523424    -0.03100
C1639       C  0.30416957  0.90090737  0.90657712     0.06800
C1640       C  0.27859743  0.87509569  0.90480696    -0.03300
Br1641     Br  0.29017281  0.82670347  0.91052709    -0.01800
Br1642     Br  0.20988293  0.84878649  0.89430390    -0.01900
Br1643     Br  0.32875685  0.97242525  0.90859515    -0.01900
Br1644     Br  0.24588341  0.99374252  0.90565480    -0.01900
C1645       C  0.39218156  0.87284177  0.76326030    -0.03000
C1646       C  0.39269033  0.90765403  0.75311632     0.06700
C1647       C  0.41202781  0.93185881  0.77013458    -0.03100
C1648       C  0.42620568  0.92253952  0.79946755    -0.03100
C1649       C  0.42162153  0.88863725  0.81175184     0.06800
C1650       C  0.40813958  0.86300569  0.79160654    -0.03300
Br1651     Br  0.41367576  0.81420667  0.80075640    -0.01800
Br1652     Br  0.36999212  0.83797914  0.73849943    -0.01900
Br1653     Br  0.45482920  0.95552829  0.82072837    -0.01900
Br1654     Br  0.41883755  0.97773857  0.75316285    -0.01900
C1655       C  0.35452645  0.90132862  0.52025640    -0.03000
C1656       C  0.37947476  0.91913124  0.50174756     0.06700
C1657       C  0.39255050  0.95110178  0.51255605    -0.03100
C1658       C  0.38219637  0.96402687  0.54225605    -0.03100
C1659       C  0.35939437  0.94488240  0.56131388     0.06800
C1660       C  0.34502276  0.91407053  0.54998186    -0.03300
Br1661     Br  0.31418483  0.88768209  0.57640597    -0.01800
Br1662     Br  0.33230978  0.85935034  0.50579154    -0.01900
Br1663     Br  0.39891675  0.00800562  0.55693117    -0.01900
Br1664     Br  0.46383268  0.92871813  0.01176150    -0.01900
loop_ 
_geom_bond_atom_site_label_1 
_geom_bond_atom_site_label_2 
_geom_bond_distance 
_geom_bond_site_symmetry_2 
_ccdc_geom_bond_type 
O1           C16   1.254       .  A
O1           Al9   1.855       .  S
C2           O12   1.261       .  A
C2            O3   1.267       .  A
C2          C817   1.478       .  S
O3           Al5   1.923       .  S
O4            C6   1.254       .  A
O4           Al5   1.887       .  S
Al5          O13   1.906       .  S
Al5          O15   1.944       .  S
Al5          O14   1.773       .  S
C6           O19   1.260       .  A
C6          C807   1.476       .  S
O7           C17   1.252       .  A
O7           Al9   1.863       .  S
O8           C21   1.271       .  A
O8          Al18   1.945       .  S
Al9          O22   1.912       .  S
Al9          O19   1.924       .  S
Al9          O14   1.769       .  S
O10          C17   1.269       .  A
O10         Al18   1.930       .  S
O11          C20   1.267       .  A
O11         Al18   1.943       .  S
O12         Al18   1.892       .  S
O13          C20   1.260       .  A
O14         Al18   1.787       .  S
O15          C16   1.268       .  A
C16        C1656   1.481       .  S
C17         C784   1.488       .  S
C20         C774   1.502       .  S
C21          O22   1.266       .  A
C21         C797   1.491       .  S
O23          C38   1.264       .  A
O23         Al31   1.927       .  S
C24          O34   1.267       .  A
C24          O25   1.257       .  A
C24         C744   1.482       .  S
O25         Al27   1.875       .  S
O26          C28   1.264       .  A
O26         Al27   1.920       .  S
Al27         O35   1.898       .  S
Al27         O37   1.903       .  S
Al27         O36   1.779       .  S
C28          O41   1.255       .  A
C28         C757   1.468       .  S
O29          C39   1.264       .  A
O29         Al31   1.925       .  S
O30          C43   1.276       .  A
O30         Al40   1.981       .  S
Al31         O44   1.900       .  S
Al31         O41   1.885       .  S
Al31         O36   1.785       .  S
O32          C39   1.256       .  A
O32         Al40   1.888       .  S
O33          C42   1.267       .  A
O33         Al40   1.920       .  S
O34         Al40   1.952       .  S
O35          C42   1.264       .  A
O36         Al40   1.787       .  S
O37          C38   1.260       .  A
C38         C734   1.478       .  S
C39         C764   1.483       .  S
C42         C724   1.490       .  S
C43          O44   1.262       .  A
C43         C794   1.508       .  S
O45          C60   1.263       .  A
O45         Al53   1.892       .  S
C46          O56   1.264       .  A
C46          O47   1.281       .  A
C46         C737   1.486       .  S
O47         Al49   1.977       .  S
O48          C50   1.254       .  A
O48         Al49   1.893       .  S
Al49         O57   1.953       .  S
Al49         O59   1.979       .  S
Al49         O58   1.790       .  S
C50          O63   1.259       .  A
C50         C704   1.492       .  S
O51          C61   1.259       .  A
O51         Al53   1.924       .  S
O52          C65   1.268       .  A
O52         Al62   1.896       .  S
Al53         O66   1.956       .  S
Al53         O63   1.913       .  S
Al53         O58   1.779       .  S
O54          C61   1.247       .  A
O54         Al62   1.886       .  S
O55          C64   1.244       .  A
O55         Al62   1.846       .  S
O56         Al62   1.876       .  S
O57          C64   1.262       .  A
O58         Al62   1.778       .  S
O59          C60   1.279       .  A
C60         C714   1.509       .  S
C61         C787   1.486       .  S
C64         C694   1.508       .  S
C65          O66   1.277       .  A
C65         C747   1.486       .  S
O67          C82   1.258       .  A
O67         Al75   1.892       .  S
C68          O78   1.261       .  A
C68          O69   1.263       .  A
C68         C674   1.471       .  S
O69         Al71   1.910       .  S
O70          C72   1.264       .  A
O70         Al71   1.927       .  S
Al71         O79   1.936       .  S
Al71         O81   1.958       .  S
Al71         O80   1.797       .  S
C72          O85   1.257       .  A
C72         C754   1.467       .  S
O73          C83   1.254       .  A
O73         Al75   1.916       .  S
O74          C87   1.268       .  A
O74         Al84   1.941       .  S
Al75         O88   1.880       .  S
Al75         O85   1.884       .  S
Al75         O80   1.777       .  S
O76          C83   1.252       .  A
O76         Al84   1.873       .  S
O77          C86   1.261       .  A
O77         Al84   1.905       .  S
O78         Al84   1.893       .  S
O79          C86   1.265       .  A
O80         Al84   1.786       .  S
O81          C82   1.274       .  A
C82         C717   1.490       .  S
C83         C684   1.480       .  S
C86         C654   1.494       .  S
C87          O88   1.259       .  A
C87         C667   1.488       .  S
O89         C104   1.257       .  A
O89         Al97   1.867       .  S
C90         O100   1.265       .  A
C90          O91   1.265       .  A
C90         C634   1.481       .  S
O91         Al93   1.906       .  S
O92          C94   1.256       .  A
O92         Al93   1.899       .  S
Al93        O101   1.913       .  S
Al93        O103   1.938       .  S
Al93        O102   1.780       .  S
C94         O107   1.258       .  A
C94         C614   1.478       .  S
O95         C105   1.264       .  A
O95         Al97   1.883       .  S
O96         C109   1.272   1_655  A
O96        Al106   1.942   1_655  S
Al97        O110   1.913       .  S
Al97        O107   1.912       .  S
Al97        O102   1.768       .  S
O98         C105   1.255       .  A
O98        Al106   1.926       .  S
O99         C108   1.260       .  A
O99        Al106   1.916   1_655  S
O100       Al106   1.895       .  S
O101        C108   1.262   1_455  A
O102       Al106   1.785       .  S
O103        C104   1.265       .  A
C104        C647   1.493       .  S
C105        C687   1.500       .  S
C108        C604   1.505       .  S
C109        O110   1.264       .  A
C109        C627   1.487       .  S
O111        C126   1.255       .  A
O111       Al119   1.882       .  S
C112        O122   1.270       .  A
C112        O113   1.260       .  A
C112        C664   1.469       .  S
O113       Al115   1.870       .  S
O114        C116   1.261       .  A
O114       Al115   1.924       .  S
Al115       O123   1.894       .  S
Al115       O125   1.926       .  S
Al115       O124   1.788       .  S
C116        O129   1.266       .  A
C116        C707   1.507       .  S
O117        C127   1.254       .  A
O117       Al119   1.895       .  S
O118        C131   1.276   1_655  A
O118       Al128   1.966   1_655  S
Al119       O132   1.903       .  S
Al119       O129   1.924       .  S
Al119       O124   1.783       .  S
O120        C127   1.255       .  A
O120       Al128   1.908       .  S
O121        C130   1.259       .  A
O121       Al128   1.922   1_655  S
O122       Al128   1.939       .  S
O123        C130   1.258   1_455  A
O124       Al128   1.795       .  S
O125        C126   1.267       .  A
C126        C677   1.492       .  S
C127        C597   1.490       .  S
C130        C584   1.496       .  S
C131        O132   1.264       .  A
C131        C624   1.496   1_455  S
O133        C148   1.266       .  A
O133       Al141   1.904       .  S
C134        O144   1.254       .  A
C134        O135   1.268       .  A
C134        C827   1.486       .  S
O135       Al137   1.915       .  S
O136        C138   1.257       .  A
O136       Al137   1.909       .  S
Al137       O145   1.941   1_565  S
Al137       O147   1.926       .  S
Al137       O146   1.791       .  S
C138        O151   1.254       .  A
C138        C617   1.481       .  S
O139        C149   1.261       .  A
O139       Al141   1.906       .  S
O140        C153   1.253       .  A
O140       Al150   1.887       .  S
Al141       O154   1.899       .  S
Al141       O151   1.896       .  S
Al141       O146   1.785       .  S
O142        C149   1.257       .  A
O142       Al150   1.880       .  S
O143        C152   1.263   1_565  A
O143       Al150   1.912       .  S
O144       Al150   1.894       .  S
O145        C152   1.265       .  A
O146       Al150   1.785       .  S
O147        C148   1.272       .  A
C148        C574   1.478       .  S
C149        C767   1.466       .  S
C152        C564   1.504       .  S
C153        O154   1.258       .  A
C153        C814   1.473       .  S
O155        C170   1.265       .  A
O155       Al163   1.906       .  S
C156        O166   1.260       .  A
C156        O157   1.262       .  A
C156        C644   1.452       .  S
O157       Al159   1.889       .  S
O158        C160   1.259       .  A
O158       Al159   1.910       .  S
Al159       O167   1.929   1_565  S
Al159       O169   1.929       .  S
Al159       O168   1.796       .  S
C160        O173   1.258       .  A
C160        C804   1.470       .  S
O161        C171   1.257       .  A
O161       Al163   1.909       .  S
O162        C175   1.259       .  A
O162       Al172   1.895       .  S
Al163       O176   1.880       .  S
Al163       O173   1.893       .  S
Al163       O168   1.782       .  S
O164        C171   1.255       .  A
O164       Al172   1.889       .  S
O165        C174   1.259   1_565  A
O165       Al172   1.905       .  S
O166       Al172   1.895       .  S
O167        C174   1.261       .  A
O168       Al172   1.781       .  S
O169        C170   1.272       .  A
C170        C577   1.477       .  S
C171        C594   1.481       .  S
C174        C554   1.496       .  S
C175        O176   1.259       .  A
C175        C637   1.459       .  S
O177        C192   1.257       .  A
O177       Al185   1.875       .  S
C178        O188   1.268       .  A
C178        O179   1.260       .  A
C178        C534   1.478       .  S
O179       Al181   1.897       .  S
O180        C182   1.253       .  A
O180       Al181   1.882       .  S
Al181       O189   1.900       .  S
Al181       O191   1.905       .  S
Al181       O190   1.791       .  S
C182        O195   1.258       .  A
C182        C524   1.487       .  S
O183        C193   1.257       .  A
O183       Al185   1.895       .  S
O184        C197   1.279       .  A
O184       Al194   1.962       .  S
Al185       O198   1.913       .  S
Al185       O195   1.913       .  S
Al185       O190   1.791       .  S
O186        C193   1.258       .  A
O186       Al194   1.905       .  S
O187        C196   1.261       .  A
O187       Al194   1.932       .  S
O188       Al194   1.930       .  S
O189        C196   1.257       .  A
O190       Al194   1.802       .  S
O191        C192   1.260       .  A
C192        C544   1.461       .  S
C193        C504   1.475       .  S
C196        C727   1.496       .  S
C197        O198   1.264       .  A
C197        C514   1.502       .  S
O199        C214   1.258       .  A
O199       Al207   1.883       .  S
C200        O210   1.267       .  A
C200        O201   1.261       .  A
C200        C474   1.488       .  S
O201       Al203   1.891       .  S
O202        C204   1.251       .  A
O202       Al203   1.880       .  S
Al203       O211   1.905       .  S
Al203       O213   1.917       .  S
Al203       O212   1.804       .  S
C204        O217   1.254       .  A
C204        C484   1.489       .  S
O205        C215   1.253       .  A
O205       Al207   1.890       .  S
O206        C219   1.277       .  A
O206       Al216   1.964       .  S
Al207       O220   1.898       .  S
Al207       O217   1.899       .  S
Al207       O212   1.805       .  S
O208        C215   1.256       .  A
O208       Al216   1.905       .  S
O209        C218   1.260       .  A
O209       Al216   1.931       .  S
O210       Al216   1.936       .  S
O211        C218   1.257       .  A
O212       Al216   1.815       .  S
O213        C214   1.262       .  A
C214        C464   1.475       .  S
C215        C494   1.477       .  S
C218        C587   1.499       .  S
C219        O220   1.261       .  A
C219        C517   1.502       .  S
O221        C236   1.265       .  A
O221       Al229   1.882       .  S
C222        O232   1.261       .  A
C222        O223   1.269       .  A
C222        C467   1.480       .  S
O223       Al225   1.933       .  S
O224        C226   1.256       .  A
O224       Al225   1.918       .  S
Al225       O233   1.917       .  S
Al225       O235   1.960       .  S
Al225       O234   1.785       .  S
C226        O239   1.247       .  A
C226        C447   1.485       .  S
O227        C237   1.264       .  A
O227       Al229   1.901       .  S
O228        C241   1.269       .  A
O228       Al238   1.946       .  S
Al229       O242   1.886       .  S
Al229       O239   1.875       .  S
Al229       O234   1.773       .  S
O230        C237   1.266       .  A
O230       Al238   1.925       .  S
O231        C240   1.258       .  A
O231       Al238   1.886       .  S
O232       Al238   1.880       .  S
O233        C240   1.260       .  A
O234       Al238   1.779       .  S
O235        C236   1.276       .  A
C236        C454   1.488       .  S
C237        C507   1.469       .  S
C240        C657   1.491   1_655  S
C241        O242   1.253       .  A
C241        C477   1.495       .  S
O243        C258   1.260       .  A
O243       Al251   1.880       .  S
C244        O254   1.258       .  A
C244        O245   1.264       .  A
C244        C427   1.460       .  S
O245       Al247   1.924       .  S
O246        C248   1.256       .  A
O246       Al247   1.892       .  S
Al247       O255   1.925       .  S
Al247       O257   1.937       .  S
Al247       O256   1.799       .  S
C248        O261   1.264       .  A
C248        C487   1.493       .  S
O249        C259   1.255       .  A
O249       Al251   1.897       .  S
O250        C263   1.261       .  A
O250       Al260   1.899       .  S
Al251       O264   1.944       .  S
Al251       O261   1.929       .  S
Al251       O256   1.787       .  S
O252        C259   1.261       .  A
O252       Al260   1.924       .  S
O253        C262   1.259       .  A
O253       Al260   1.892       .  S
O254       Al260   1.861       .  S
O255        C262   1.263       .  A
O256       Al260   1.784       .  S
O257        C258   1.266       .  A
C258        C457   1.490       .  S
C259        C434   1.479       .  S
C262        C557   1.497   1_655  S
C263        O264   1.269       .  A
C263        C414   1.485       .  S
O265        C280   1.257       .  A
O265       Al273   1.889       .  S
C266        O276   1.266       .  A
C266        O267   1.260       .  A
C266        C394   1.504       .  S
O267       Al269   1.907       .  S
O268        C270   1.259       .  A
O268       Al269   1.891       .  S
Al269       O277   1.892       .  S
Al269       O279   1.908       .  S
Al269       O278   1.779       .  S
C270        O283   1.260       .  A
C270        C374   1.469       .  S
O271        C281   1.254       .  A
O271       Al273   1.882       .  S
O272        C285   1.272       .  A
O272       Al282   1.946       .  S
Al273       O286   1.901       .  S
Al273       O283   1.901       .  S
Al273       O278   1.780       .  S
O274        C281   1.264       .  A
O274       Al282   1.930       .  S
O275        C284   1.267       .  A
O275       Al282   1.954       .  S
O276       Al282   1.919       .  S
O277        C284   1.256       .  A
O278       Al282   1.797       .  S
O279        C280   1.257       .  A
C280        C404   1.468       .  S
C281        C437   1.475       .  S
C284        C777   1.513   1_545  S
C285        O286   1.262       .  A
C285        C387   1.489       .  S
O287        C302   1.256       .  A
O287       Al295   1.881       .  S
C288        O298   1.268       .  A
C288        O289   1.256       .  A
C288        C417   1.501       .  S
O289       Al291   1.899       .  S
O290        C292   1.257       .  A
O290       Al291   1.882       .  S
Al291       O299   1.900       .  S
Al291       O301   1.891       .  S
Al291       O300   1.779       .  S
C292        O305   1.262       .  A
C292        C444   1.467       .  S
O293        C303   1.254       .  A
O293       Al295   1.892       .  S
O294        C307   1.273       .  A
O294       Al304   1.942       .  S
Al295       O308   1.912       .  S
Al295       O305   1.908       .  S
Al295       O300   1.777       .  S
O296        C303   1.260       .  A
O296       Al304   1.920       .  S
O297        C306   1.267       .  A
O297       Al304   1.943       .  S
O298       Al304   1.927       .  S
O299        C306   1.258       .  A
O300       Al304   1.788       .  S
O301        C302   1.254       .  A
C302        C424   1.456       .  S
C303        C364   1.472       .  S
C306        C607   1.499   1_545  S
C307        O308   1.266       .  A
C307        C384   1.491       .  S
O309        C324   1.264       .  A
O309       Al317   1.880       .  S
C310        O320   1.263       .  A
C310        O311   1.269       .  A
C310        C547   1.471       .  S
O311       Al313   1.928       .  S
O312        C314   1.255       .  A
O312       Al313   1.904       .  S
Al313       O321   1.933       .  S
Al313       O323   1.949       .  S
Al313       O322   1.795       .  S
C314        O327   1.251       .  A
C314        C377   1.481       .  S
O315        C325   1.260       .  A
O315       Al317   1.907       .  S
O316        C329   1.268       .  A
O316       Al326   1.930       .  S
Al317       O330   1.894       .  S
Al317       O327   1.876       .  S
Al317       O322   1.773       .  S
O318        C325   1.259       .  A
O318       Al326   1.916       .  S
O319        C328   1.253       .  A
O319       Al326   1.869       .  S
O320       Al326   1.879       .  S
O321        C328   1.261       .  A
O322       Al326   1.781       .  S
O323        C324   1.271       .  A
C324        C354   1.486       .  S
C325        C497   1.471       .  S
C328        C697   1.511       .  S
C329        O330   1.259       .  A
C329        C537   1.493       .  S
O331        C346   1.261       .  A
O331       Al339   1.889       .  S
C332        O342   1.256       .  A
C332        O333   1.267       .  A
C332        C407   1.468       .  S
O333       Al335   1.939       .  S
O334        C336   1.258       .  A
O334       Al335   1.901       .  S
Al335       O343   1.939       .  S
Al335       O345   1.950       .  S
Al335       O344   1.800       .  S
C336        O349   1.262       .  A
C336        C527   1.494       .  S
O337        C347   1.256       .  A
O337       Al339   1.899       .  S
O338        C351   1.259       .  A
O338       Al348   1.891       .  S
Al339       O352   1.934       .  S
Al339       O349   1.918       .  S
Al339       O344   1.787       .  S
O340        C347   1.261       .  A
O340       Al348   1.924       .  S
O341        C350   1.256       .  A
O341       Al348   1.875       .  S
O342       Al348   1.854       .  S
O343        C350   1.266       .  A
O344       Al348   1.785       .  S
O345        C346   1.269       .  A
C346        C357   1.497       .  S
C347        C367   1.483       .  S
C350        C567   1.505       .  S
C351        O352   1.267       .  A
C351        C397   1.477       .  S
C353        C354   1.412       .  A
C353       C1190   1.413       .  A
C353       Br360   1.920       .  S
C354        C355   1.404       .  A
C355       C1188   1.407       .  A
C355       Br362   1.932       .  S
C356        C357   1.417       .  A
C356       C1187   1.413       .  A
C356       Br361   1.917       .  S
C357        C358   1.412   1_554  A
C358       C1185   1.410       .  A
C358       Br359   1.925       .  S
C363        C364   1.409       .  A
C363        C368   1.413       .  A
C363       Br370   1.927       .  S
C364        C365   1.403       .  A
C365        C366   1.401       .  A
C365       Br372   1.932       .  S
C366        C367   1.412       .  A
C366       Br371   1.919       .  S
C367        C368   1.414       .  A
C368       Br369   1.929       .  S
C373        C374   1.411       .  A
C373        C378   1.410       .  A
C373       Br380   1.932       .  S
C374        C375   1.404       .  A
C375        C376   1.399       .  A
C375       Br382   1.931       .  S
C376        C377   1.415       .  A
C376       Br381   1.931       .  S
C377        C378   1.415       .  A
C378       Br379   1.931       .  S
C383        C384   1.411       .  A
C383        C388   1.414       .  A
C383       Br390   1.925       .  S
C384        C385   1.410       .  A
C385        C386   1.416       .  A
C385       Br392   1.927       .  S
C386        C387   1.412       .  A
C386       Br391   1.926       .  S
C387        C388   1.410       .  A
C388       Br389   1.928       .  S
C393        C394   1.420       .  A
C393       C1230   1.411       .  A
C393       Br400   1.934       .  S
C394        C395   1.428       .  A
C395        C396   1.407       .  A
C395       Br402   1.936       .  S
C396       C1229   1.399       .  A
C396       Br401   1.931       .  S
C397        C398   1.405       .  A
C397       C1228   1.401   1_554  A
C398       C1225   1.409   1_554  A
C398       Br399   1.925       .  S
C403        C404   1.411       .  A
C403        C408   1.402       .  A
C403       Br410   1.927       .  S
C404        C405   1.405       .  A
C405        C406   1.407       .  A
C405       Br412   1.929       .  S
C406        C407   1.413       .  A
C406       Br411   1.928       .  S
C407        C408   1.404       .  A
C408       Br409   1.928       .  S
C413        C418   1.409       .  A
C413       C1246   1.403       .  A
C413      Br1252   1.928   1_554  S
C414       C1245   1.406       .  A
C414       C1247   1.403       .  A
C415        C416   1.403       .  A
C415       C1246   1.394       .  A
C415       Br422   1.928       .  S
C416        C417   1.435       .  A
C416       Br421   1.940       .  S
C417        C418   1.422       .  A
C418       Br419   1.933       .  S
Br420      C1245   1.924       .  S
C423        C424   1.409       .  A
C423        C428   1.401       .  A
C423       Br430   1.929       .  S
C424        C425   1.403       .  A
C425        C426   1.402       .  A
C425       Br432   1.930       .  S
C426        C427   1.410       .  A
C426       Br431   1.929       .  S
C427        C428   1.405       .  A
C428       Br429   1.929       .  S
C433        C434   1.408       .  A
C433        C438   1.404       .  A
C433       Br440   1.921       .  S
C434        C435   1.411       .  A
C435        C436   1.412       .  A
C435       Br442   1.928       .  S
C436        C437   1.409       .  A
C436       Br441   1.925       .  S
C437        C438   1.408       .  A
C438       Br439   1.932       .  S
C443        C444   1.402       .  A
C443        C448   1.402       .  A
C443       Br450   1.933       .  S
C444        C445   1.409       .  A
C445        C446   1.408       .  A
C445       Br452   1.933       .  S
C446        C447   1.416       .  A
C446       Br451   1.933       .  S
C447        C448   1.422       .  A
C448       Br449   1.935       .  S
C453        C454   1.410       .  A
C453        C458   1.410       .  A
C453       Br460   1.924       .  S
C454        C455   1.410   1_554  A
C455       C1288   1.413       .  A
C455       Br462   1.931       .  S
C456        C457   1.415       .  A
C456       C1287   1.411       .  A
C456       Br461   1.916       .  S
C457       C1290   1.410       .  A
C458       C1289   1.409   1_554  A
C458       Br459   1.913       .  S
C463        C464   1.406       .  A
C463        C468   1.412       .  A
C463       Br470   1.927       .  S
C464        C465   1.411       .  A
C465        C466   1.402       .  A
C465       Br472   1.927       .  S
C466        C467   1.409       .  A
C466       Br471   1.930       .  S
C467        C468   1.416       .  A
C468       Br469   1.930       .  S
C473        C474   1.408       .  A
C473       C1310   1.422       .  A
C473       Br480   1.926       .  S
C474        C475   1.402       .  A
C475        C476   1.402       .  A
C475       Br482   1.916       .  S
C476       C1309   1.417       .  A
C476       Br481   1.937       .  S
C477        C478   1.419       .  A
C477       C1308   1.426   1_554  A
C478       C1305   1.415   1_554  A
C478       Br479   1.928       .  S
C483        C484   1.414       .  A
C483        C488   1.410       .  A
C483       Br490   1.937       .  S
C484        C485   1.414       .  A
C485        C486   1.410       .  A
C485       Br492   1.935       .  S
C486        C487   1.414       .  A
C486       Br491   1.928       .  S
C487        C488   1.416       .  A
C488       Br489   1.930       .  S
C493        C494   1.412       .  A
C493        C498   1.408       .  A
C493       Br500   1.931       .  S
C494        C495   1.410       .  A
C495        C496   1.405       .  A
C495       Br502   1.927       .  S
C496        C497   1.408       .  A
C496       Br501   1.931       .  S
C497        C498   1.408       .  A
C498       Br499   1.927       .  S
C503        C504   1.414       .  A
C503        C508   1.408       .  A
C503       Br510   1.932       .  S
C504        C505   1.411       .  A
C505        C506   1.404       .  A
C505       Br512   1.931       .  S
C506        C507   1.408       .  A
C506       Br511   1.932       .  S
C507        C508   1.407       .  A
C508       Br509   1.931       .  S
C513        C514   1.413       .  A
C513        C518   1.419       .  A
C513       Br520   1.927       .  S
C514        C515   1.414       .  A
C515        C516   1.420       .  A
C515       Br522   1.922       .  S
C516        C517   1.412       .  A
C516       Br521   1.927       .  S
C517        C518   1.415       .  A
C518       Br519   1.925       .  S
C523        C524   1.411       .  A
C523        C528   1.410       .  A
C523       Br530   1.933       .  S
C524        C525   1.415       .  A
C525        C526   1.410       .  A
C525       Br532   1.935       .  S
C526        C527   1.415       .  A
C526       Br531   1.933       .  S
C527        C528   1.416       .  A
C528       Br529   1.929       .  S
C533        C534   1.400       .  A
C533        C538   1.402       .  A
C533       Br540   1.926       .  S
C534        C535   1.408       .  A
C535        C536   1.419       .  A
C535       Br542   1.927       .  S
C536       C1369   1.422       .  A
C536      Br1373   1.929   1_554  S
C537       C1368   1.422       .  A
C537       C1370   1.424       .  A
C538       C1369   1.422       .  A
C538      Br1371   1.938       .  S
Br539      C1370   1.939       .  S
Br541      C1368   1.928       .  S
C543        C544   1.407       .  A
C543        C548   1.400       .  A
C543       Br550   1.928       .  S
C544        C545   1.401       .  A
C545        C546   1.405       .  A
C545       Br552   1.929       .  S
C546        C547   1.414       .  A
C546       Br551   1.924       .  S
C547        C548   1.409       .  A
C548       Br549   1.928       .  S
C553        C554   1.419       .  A
C553        C558   1.405       .  A
C553       Br560   1.929   1_545  S
C554        C555   1.414       .  A
C555        C556   1.420       .  A
C555       Br562   1.931       .  S
C556        C557   1.419       .  A
C556       Br561   1.929       .  S
C557        C558   1.410       .  A
C558       Br559   1.938   1_455  S
C563        C564   1.420       .  A
C563        C568   1.423       .  A
C563       Br570   1.930       .  S
C564        C565   1.418       .  A
C565        C566   1.402       .  A
C565       Br572   1.929   1_545  S
C566        C567   1.414       .  A
C566       Br571   1.942       .  S
C567        C568   1.419       .  A
C568       Br569   1.928       .  S
C573        C574   1.413       .  A
C573        C578   1.411       .  A
C573       Br580   1.927       .  S
C574        C575   1.408       .  A
C575        C576   1.410   1_565  A
C575       Br582   1.930       .  S
C576        C577   1.411   1_545  A
C576       Br581   1.926       .  S
C577        C578   1.407       .  A
C578       Br579   1.929       .  S
C583        C584   1.403       .  A
C583        C588   1.405       .  A
C583       Br590   1.934       .  S
C584        C585   1.418       .  A
C585        C586   1.423       .  A
C585       Br592   1.926       .  S
C586        C587   1.412       .  A
C586       Br591   1.926       .  S
C587        C588   1.418       .  A
C588       Br589   1.920       .  S
C593        C594   1.414       .  A
C593        C598   1.410       .  A
C593       Br600   1.932       .  S
C594        C595   1.407       .  A
C595        C596   1.408       .  A
C595       Br602   1.933       .  S
C596        C597   1.415       .  A
C596       Br601   1.920       .  S
C597        C598   1.413       .  A
C598       Br599   1.933       .  S
C603        C604   1.419       .  A
C603        C608   1.411       .  A
C603       Br610   1.936   1_655  S
C604        C605   1.420       .  A
C605        C606   1.415       .  A
C605       Br612   1.932       .  S
C606        C607   1.411       .  A
C606       Br611   1.932       .  S
C607        C608   1.419       .  A
C608       Br609   1.938   1_565  S
C613        C614   1.409       .  A
C613        C618   1.409       .  A
C613       Br620   1.921       .  S
C614        C615   1.408       .  A
C615        C616   1.406       .  A
C615       Br622   1.931       .  S
C616        C617   1.409       .  A
C616       Br621   1.920       .  S
C617        C618   1.413       .  A
C618       Br619   1.933       .  S
C623        C628   1.417       .  A
C623       C1456   1.411   1_654  A
C623       Br630   1.926       .  S
C624        C625   1.410   1_655  A
C624       C1455   1.415       .  A
C625       C1458   1.410   1_455  A
C625       Br632   1.920       .  S
C626        C627   1.408   1_556  A
C626       C1457   1.410       .  A
C626       Br631   1.930       .  S
C627        C628   1.411   1_455  A
C628       Br629   1.922       .  S
C633        C634   1.418       .  A
C633        C638   1.403       .  A
C633       Br640   1.923       .  S
C634        C635   1.415       .  A
C635        C636   1.402       .  A
C635       Br642   1.932       .  S
C636        C637   1.407       .  A
C636       Br641   1.932       .  S
C637        C638   1.400       .  A
C638       Br639   1.933       .  S
C643        C644   1.402       .  A
C643       C1480   1.404       .  A
C643       Br650   1.928   1_565  S
C644        C645   1.399       .  A
C645        C646   1.398       .  A
C645       Br652   1.934       .  S
C646       C1479   1.422       .  A
C646      Br1483   1.935       .  S
C647        C648   1.420   1_554  A
C647       C1478   1.419   1_554  A
C648       C1475   1.413       .  A
C648       Br649   1.931   1_556  S
Br651      C1478   1.941       .  S
C653        C654   1.418       .  A
C653        C658   1.404       .  A
C653       Br660   1.922       .  S
C654        C655   1.410       .  A
C655        C656   1.419       .  A
C655       Br662   1.928       .  S
C656        C657   1.419       .  A
C656       Br661   1.928       .  S
C657        C658   1.405       .  A
C658       Br659   1.937   1_455  S
C663        C664   1.402       .  A
C663        C668   1.399       .  A
C663       Br670   1.933       .  S
C664        C665   1.407       .  A
C665        C666   1.416       .  A
C665       Br672   1.928   1_455  S
C666        C667   1.418       .  A
C666       Br671   1.929       .  S
C667        C668   1.421       .  A
C668       Br669   1.936       .  S
C673        C674   1.403       .  A
C673        C678   1.401       .  A
C673       Br680   1.928       .  S
C674        C675   1.406       .  A
C675        C676   1.412       .  A
C675       Br682   1.929       .  S
C676       C1509   1.419       .  A
C676      Br1513   1.929   1_554  S
C677       C1508   1.425       .  A
C677       C1510   1.428       .  A
C678       C1509   1.418       .  A
C678      Br1511   1.936       .  S
Br679      C1510   1.940       .  S
Br681      C1508   1.931       .  S
C683        C684   1.411       .  A
C683        C688   1.409       .  A
C683       Br690   1.933       .  S
C684        C685   1.408       .  A
C685        C686   1.406       .  A
C685       Br692   1.937       .  S
C686        C687   1.426       .  A
C686       Br691   1.936       .  S
C687        C688   1.420       .  A
C688       Br689   1.940       .  S
C693        C694   1.418       .  A
C693        C698   1.396       .  A
C693       Br700   1.944       .  S
C694        C695   1.418       .  A
C695        C696   1.428       .  A
C695       Br702   1.929       .  S
C696        C697   1.426       .  A
C696       Br701   1.929       .  S
C697        C698   1.417       .  A
C698       Br699   1.943       .  S
C703        C704   1.409       .  A
C703        C708   1.414       .  A
C703       Br710   1.927       .  S
C704        C705   1.409       .  A
C705        C706   1.409       .  A
C705       Br712   1.933       .  S
C706        C707   1.426       .  A
C706       Br711   1.936       .  S
C707        C708   1.419       .  A
C708       Br709   1.930       .  S
C713        C714   1.416       .  A
C713        C718   1.418       .  A
C713       Br720   1.912       .  S
C714        C715   1.416       .  A
C715        C716   1.417       .  A
C715       Br722   1.924       .  S
C716        C717   1.410       .  A
C716       Br721   1.928       .  S
C717        C718   1.407       .  A
C718       Br719   1.929       .  S
C723        C724   1.419       .  A
C723        C728   1.419       .  A
C723       Br730   1.929       .  S
C724        C725   1.408       .  A
C725        C726   1.404       .  A
C725       Br732   1.939       .  S
C726        C727   1.419       .  A
C726       Br731   1.926       .  S
C727        C728   1.412       .  A
C728       Br729   1.929       .  S
C733        C734   1.401   1_556  A
C733       C1570   1.406       .  A
C733       Br740   1.926       .  S
C734       C1567   1.410       .  A
C735        C736   1.411       .  A
C735       C1566   1.420       .  A
C735       Br742   1.929       .  S
C736        C737   1.406       .  A
C736       Br741   1.930       .  S
C737        C738   1.416       .  A
C738       C1565   1.410       .  A
C738       Br739   1.924       .  S
C743        C744   1.413       .  A
C743        C748   1.412       .  A
C743       Br750   1.930       .  S
C744        C745   1.406       .  A
C745        C746   1.407       .  A
C745       Br752   1.925       .  S
C746        C747   1.414       .  A
C746       Br751   1.930       .  S
C747        C748   1.412       .  A
C748       Br749   1.932       .  S
C753        C754   1.410       .  A
C753        C758   1.402       .  A
C753       Br760   1.931       .  S
C754        C755   1.409       .  A
C755        C756   1.407       .  A
C755       Br762   1.926       .  S
C756        C757   1.406       .  A
C756       Br761   1.929       .  S
C757        C758   1.405       .  A
C758       Br759   1.926       .  S
C763        C764   1.420       .  A
C763        C768   1.407       .  A
C763       Br770   1.937       .  S
C764        C765   1.415       .  A
C765        C766   1.402       .  A
C765       Br772   1.930       .  S
C766        C767   1.403       .  A
C766       Br771   1.932       .  S
C767        C768   1.407       .  A
C768       Br769   1.934       .  S
C773        C774   1.417       .  A
C773        C778   1.409       .  A
C773       Br780   1.936       .  S
C774        C775   1.412       .  A
C775        C776   1.420       .  A
C775       Br782   1.932       .  S
C776        C777   1.424       .  A
C776       Br781   1.932       .  S
C777        C778   1.424       .  A
C778       Br779   1.946   1_565  S
C783        C784   1.424       .  A
C783        C788   1.409       .  A
C783       Br790   1.935       .  S
C784        C785   1.411       .  A
C785        C786   1.399       .  A
C785       Br792   1.936       .  S
C786        C787   1.421       .  A
C786       Br791   1.940       .  S
C787        C788   1.412       .  A
C788       Br789   1.937       .  S
C793        C794   1.414       .  A
C793        C798   1.412       .  A
C793       Br800   1.919       .  S
C794        C795   1.416   1_554  A
C795       C1628   1.420       .  A
C795       Br802   1.918       .  S
C796        C797   1.413       .  A
C796       C1627   1.424       .  A
C796       Br801   1.918       .  S
C797       C1630   1.401       .  A
C798       C1629   1.407   1_554  A
C798       Br799   1.918       .  S
C803        C804   1.409       .  A
C803        C808   1.404       .  A
C803       Br810   1.935       .  S
C804        C805   1.410       .  A
C805        C806   1.405       .  A
C805       Br812   1.930       .  S
C806        C807   1.409       .  A
C806       Br811   1.925       .  S
C807        C808   1.407       .  A
C808       Br809   1.914       .  S
C813        C814   1.414       .  A
C813        C818   1.407       .  A
C813       Br820   1.931       .  S
C814        C815   1.409       .  A
C815        C816   1.404       .  A
C815       Br822   1.929       .  S
C816        C817   1.405       .  A
C816       Br821   1.917       .  S
C817        C818   1.408       .  A
C818       Br819   1.932       .  S
C823        C824   1.407       .  A
C823        C828   1.402       .  A
C823       Br830   1.919   1_554  S
C824        C848   1.461   1_554  S
C824        C825   1.392       .  A
C825        C826   1.398       .  A
C825      Br1664   1.929       .  S
C826        C827   1.429       .  A
C826       Br831   1.931       .  S
C827        C828   1.412       .  A
C828       Br829   1.930       .  S
Br832      C1657   1.930       .  S
O833        C848   1.260       .  A
O833       Al841   1.886       .  S
C834        O844   1.263       .  A
C834        O835   1.258       .  A
C834       C1649   1.498       .  S
O835       Al837   1.909       .  S
O836        C838   1.259       .  A
O836       Al837   1.886       .  S
Al837       O845   1.895       .  S
Al837       O847   1.916       .  S
Al837       O846   1.778       .  S
C838        O851   1.261       .  A
C838       C1639   1.465       .  S
O839        C849   1.256       .  A
O839       Al841   1.889       .  S
O840        C853   1.270       .  A
O840       Al850   1.945       .  S
Al841       O854   1.904       .  S
Al841       O851   1.906       .  S
Al841       O846   1.776       .  S
O842        C849   1.268       .  A
O842       Al850   1.936       .  S
O843        C852   1.271       .  A
O843       Al850   1.953       .  S
O844       Al850   1.912       .  S
O845        C852   1.260       .  A
O846       Al850   1.786       .  S
O847        C848   1.258       .  A
C849       C1616   1.474       .  S
C852       C1606   1.503       .  S
C853        O854   1.261       .  A
C853       C1629   1.496       .  S
O855        C870   1.266       .  A
O855       Al863   1.915       .  S
C856        O866   1.274       .  A
C856        O857   1.265       .  A
C856       C1576   1.483       .  S
O857       Al859   1.883       .  S
O858        C860   1.250       .  A
O858       Al859   1.887       .  S
Al859       O867   1.877       .  S
Al859       O869   1.919       .  S
Al859       O868   1.785       .  S
C860        O873   1.251       .  A
C860       C1589   1.500       .  S
O861        C871   1.256       .  A
O861       Al863   1.883       .  S
O862        C875   1.270       .  A
O862       Al872   1.949       .  S
Al863       O876   1.881       .  S
Al863       O873   1.902       .  S
Al863       O868   1.787       .  S
O864        C871   1.254       .  A
O864       Al872   1.888       .  S
O865        C874   1.261       .  A
O865       Al872   1.936       .  S
O866       Al872   1.952       .  S
O867        C874   1.252       .  A
O868       Al872   1.804       .  S
O869        C870   1.273       .  A
C870       C1566   1.487       .  S
C871       C1596   1.471       .  S
C874       C1556   1.504       .  S
C875        O876   1.257       .  A
C875       C1626   1.489       .  S
O877        C892   1.265       .  A
O877       Al885   1.896       .  S
C878        O888   1.257       .  A
C878        O879   1.269       .  A
C878       C1569   1.493       .  S
O879       Al881   1.958       .  S
O880        C882   1.263       .  A
O880       Al881   1.917       .  S
Al881       O889   1.940       .  S
Al881       O891   1.941       .  S
Al881       O890   1.804       .  S
C882        O895   1.251       .  A
C882       C1536   1.476       .  S
O883        C893   1.260       .  A
O883       Al885   1.911       .  S
O884        C897   1.260       .  A
O884       Al894   1.908       .  S
Al885       O898   1.908       .  S
Al885       O895   1.862       .  S
Al885       O890   1.786       .  S
O886        C893   1.262       .  A
O886       Al894   1.924       .  S
O887        C896   1.254       .  A
O887       Al894   1.869       .  S
O888       Al894   1.867       .  S
O889        C896   1.264       .  A
O890       Al894   1.774       .  S
O891        C892   1.269       .  A
C892       C1546   1.501       .  S
C893       C1619   1.490       .  S
C896       C1526   1.508       .  S
C897        O898   1.261       .  A
C897       C1579   1.478       .  S
O899        C914   1.263       .  A
O899       Al907   1.891       .  S
C900        O910   1.262       .  A
C900        O901   1.263       .  A
C900       C1506   1.469       .  S
O901       Al903   1.924       .  S
O902        C904   1.252       .  A
O902       Al903   1.889       .  S
Al903       O911   1.929       .  S
Al903       O913   1.952       .  S
Al903       O912   1.799       .  S
C904        O917   1.257       .  A
C904       C1586   1.485       .  S
O905        C915   1.260       .  A
O905       Al907   1.913       .  S
O906        C919   1.265       .  A
O906       Al916   1.908       .  S
Al907       O920   1.918       .  S
Al907       O917   1.900       .  S
Al907       O912   1.783       .  S
O908        C915   1.256       .  A
O908       Al916   1.910       .  S
O909        C918   1.250       .  A
O909       Al916   1.868       .  S
O910       Al916   1.873       .  S
O911        C918   1.267       .  A
O912       Al916   1.780       .  S
O913        C914   1.272       .  A
C914       C1549   1.491       .  S
C915       C1516   1.489       .  S
C918       C1486   1.496       .  S
C919        O920   1.266       .  A
C919       C1499   1.478       .  S
O921        C936   1.256       .  A
O921       Al929   1.876       .  S
C922        O932   1.272       .  A
C922        O923   1.262       .  A
C922       C1466   1.473       .  S
O923       Al925   1.897       .  S
O924        C926   1.257       .  A
O924       Al925   1.878       .  S
Al925       O933   1.919       .  S
Al925       O935   1.895       .  S
Al925       O934   1.785       .  S
C926        O939   1.257       .  A
C926       C1446   1.483       .  S
O927        C937   1.255       .  A
O927       Al929   1.903       .  S
O928        C941   1.275   1_655  A
O928       Al938   1.955   1_655  S
Al929       O942   1.915       .  S
Al929       O939   1.910       .  S
Al929       O934   1.780       .  S
O930        C937   1.260       .  A
O930       Al938   1.921       .  S
O931        C940   1.259       .  A
O931       Al938   1.916   1_655  S
O932       Al938   1.931       .  S
O933        C940   1.262   1_455  A
O934       Al938   1.793       .  S
O935        C936   1.258       .  A
C936       C1479   1.476       .  S
C937       C1519   1.478       .  S
C940       C1436   1.497       .  S
C941        O942   1.267       .  A
C941       C1459   1.496   1_455  S
O943        C958   1.264       .  A
O943       Al951   1.907       .  S
C944        O954   1.274       .  A
C944        O945   1.264       .  A
C944       C1496   1.475       .  S
O945       Al947   1.870       .  S
O946        C948   1.254       .  A
O946       Al947   1.902       .  S
Al947       O955   1.861       .  S
Al947       O957   1.918       .  S
Al947       O956   1.786       .  S
C948        O961   1.254       .  A
C948       C1539   1.459       .  S
O949        C959   1.250       .  A
O949       Al951   1.874       .  S
O950        C963   1.275   1_655  A
O950       Al960   1.966   1_655  S
Al951       O964   1.882       .  S
Al951       O961   1.894       .  S
Al951       O956   1.784       .  S
O952        C959   1.255       .  A
O952       Al960   1.903       .  S
O953        C962   1.263       .  A
O953       Al960   1.945   1_655  S
O954       Al960   1.947       .  S
O955        C962   1.248   1_455  A
O956       Al960   1.796       .  S
O957        C958   1.269       .  A
C958       C1509   1.487   1_556  S
C959       C1429   1.480       .  S
C962       C1416   1.507       .  S
C963        O964   1.260       .  A
C963       C1456   1.493       .  S
O965        C980   1.266       .  A
O965       Al973   1.915       .  S
C966        O976   1.263       .  A
C966        O967   1.263       .  A
C966       C1659   1.466       .  S
O967       Al969   1.896       .  S
O968        C970   1.262       .  A
O968       Al969   1.928       .  S
Al969       O977   1.937   1_565  S
Al969       O979   1.934       .  S
Al969       O978   1.790       .  S
C970        O983   1.263       .  A
C970       C1449   1.509       .  S
O971        C981   1.254       .  A
O971       Al973   1.903       .  S
O972        C985   1.266       .  A
O972       Al982   1.926       .  S
Al973       O986   1.899       .  S
Al973       O983   1.909       .  S
Al973       O978   1.783       .  S
O974        C981   1.256       .  A
O974       Al982   1.899       .  S
O975        C984   1.262   1_565  A
O975       Al982   1.914       .  S
O976       Al982   1.915       .  S
O977        C984   1.264       .  A
O978       Al982   1.773       .  S
O979        C980   1.271       .  A
C980       C1406   1.483       .  S
C981       C1599   1.498       .  S
C984       C1396   1.507       .  S
C985        O986   1.265       .  A
C985       C1646   1.479       .  S
O987       C1002   1.262       .  A
O987       Al995   1.892       .  S
C988        O998   1.274       .  A
C988        O989   1.272       .  A
C988       C1476   1.479       .  S
O989       Al991   1.926       .  S
O990        C992   1.248       .  A
O990       Al991   1.871       .  S
Al991       O999   1.922   1_565  S
Al991      O1001   1.945       .  S
Al991      O1000   1.796       .  S
C992       O1005   1.254       .  A
C992       C1636   1.475       .  S
O993       C1003   1.260       .  A
O993       Al995   1.932       .  S
O994       C1007   1.273       .  A
O994      Al1004   1.913       .  S
Al995      O1008   1.914       .  S
Al995      O1005   1.882       .  S
Al995      O1000   1.781       .  S
O996       C1003   1.246       .  A
O996      Al1004   1.894       .  S
O997       C1006   1.244   1_565  A
O997      Al1004   1.864       .  S
O998      Al1004   1.903       .  S
O999       C1006   1.257       .  A
O1000     Al1004   1.779       .  S
O1001      C1002   1.271       .  A
C1002      C1409   1.488       .  S
C1003      C1426   1.503       .  S
C1006      C1386   1.498       .  S
C1007      O1008   1.271       .  A
C1007      C1469   1.485       .  S
O1009      C1024   1.257       .  A
O1009     Al1017   1.877       .  S
C1010      O1020   1.265       .  A
C1010      O1011   1.260       .  A
C1010      C1366   1.464       .  S
O1011     Al1013   1.898       .  S
O1012      C1014   1.256       .  A
O1012     Al1013   1.894       .  S
Al1013     O1021   1.912       .  S
Al1013     O1023   1.904       .  S
Al1013     O1022   1.786       .  S
C1014      O1027   1.259       .  A
C1014      C1356   1.487       .  S
O1015      C1025   1.253       .  A
O1015     Al1017   1.879       .  S
O1016      C1029   1.274       .  A
O1016     Al1026   1.942       .  S
Al1017     O1030   1.914       .  S
Al1017     O1027   1.914       .  S
Al1017     O1022   1.787       .  S
O1018      C1025   1.259       .  A
O1018     Al1026   1.918       .  S
O1019      C1028   1.262       .  A
O1019     Al1026   1.936       .  S
O1020     Al1026   1.909       .  S
O1021      C1028   1.261       .  A
O1022     Al1026   1.801       .  S
O1023      C1024   1.259       .  A
C1024      C1376   1.462       .  S
C1025      C1336   1.469       .  S
C1028      C1559   1.505       .  S
C1029      O1030   1.266       .  A
C1029      C1346   1.491       .  S
O1031      C1046   1.257       .  A
O1031     Al1039   1.888       .  S
C1032      O1042   1.265       .  A
C1032      O1033   1.258       .  A
C1032      C1306   1.470       .  S
O1033     Al1035   1.899       .  S
O1034      C1036   1.257       .  A
O1034     Al1035   1.889       .  S
Al1035     O1043   1.906       .  S
Al1035     O1045   1.907       .  S
Al1035     O1044   1.785       .  S
C1036      O1049   1.257       .  A
C1036      C1316   1.476       .  S
O1037      C1047   1.253       .  A
O1037     Al1039   1.877       .  S
O1038      C1051   1.273       .  A
O1038     Al1048   1.946       .  S
Al1039     O1052   1.895       .  S
Al1039     O1049   1.903       .  S
Al1039     O1044   1.787       .  S
O1040      C1047   1.263       .  A
O1040     Al1048   1.929       .  S
O1041      C1050   1.266       .  A
O1041     Al1048   1.944       .  S
O1042     Al1048   1.917       .  S
O1043      C1050   1.262       .  A
O1044     Al1048   1.798       .  S
O1045      C1046   1.259       .  A
C1046      C1296   1.467       .  S
C1047      C1326   1.476       .  S
C1050      C1419   1.501       .  S
C1051      O1052   1.261       .  A
C1051      C1349   1.486       .  S
O1053      C1068   1.263       .  A
O1053     Al1061   1.885       .  S
C1054      O1064   1.260       .  A
C1054      O1055   1.266       .  A
C1054      C1299   1.473       .  S
O1055     Al1057   1.925       .  S
O1056      C1058   1.254       .  A
O1056     Al1057   1.902       .  S
Al1057     O1065   1.903       .  S
Al1057     O1067   1.936       .  S
Al1057     O1066   1.795       .  S
C1058      O1071   1.255       .  A
C1058      C1279   1.486       .  S
O1059      C1069   1.260       .  A
O1059     Al1061   1.891       .  S
O1060      C1073   1.268       .  A
O1060     Al1070   1.936       .  S
Al1061     O1074   1.904       .  S
Al1061     O1071   1.901       .  S
Al1061     O1066   1.779       .  S
O1062      C1069   1.263       .  A
O1062     Al1070   1.917       .  S
O1063      C1072   1.261       .  A
O1063     Al1070   1.895       .  S
O1064     Al1070   1.878       .  S
O1065      C1072   1.257       .  A
O1066     Al1070   1.786       .  S
O1067      C1068   1.270       .  A
C1068      C1286   1.476       .  S
C1069      C1339   1.462       .  S
C1072      C1489   1.486   1_655  S
C1073      O1074   1.259       .  A
C1073      C1309   1.498       .  S
O1075      C1090   1.266       .  A
O1075     Al1083   1.909       .  S
C1076      O1086   1.254       .  A
C1076      O1077   1.262       .  A
C1076      C1259   1.451       .  S
O1077     Al1079   1.919       .  S
O1078      C1080   1.254       .  A
O1078     Al1079   1.887       .  S
Al1079     O1087   1.931       .  S
Al1079     O1089   1.937       .  S
Al1079     O1088   1.800       .  S
C1080      O1093   1.259       .  A
C1080      C1319   1.492       .  S
O1081      C1091   1.261       .  A
O1081     Al1083   1.922       .  S
O1082      C1095   1.260       .  A
O1082     Al1092   1.889       .  S
Al1083     O1096   1.924       .  S
Al1083     O1093   1.912       .  S
Al1083     O1088   1.789       .  S
O1084      C1091   1.259       .  A
O1084     Al1092   1.917       .  S
O1085      C1094   1.254       .  A
O1085     Al1092   1.872       .  S
O1086     Al1092   1.842       .  S
O1087      C1094   1.264       .  A
O1088     Al1092   1.786       .  S
O1089      C1090   1.268       .  A
C1090      C1289   1.498       .  S
C1091      C1266   1.490       .  S
C1094      C1389   1.490   1_655  S
C1095      O1096   1.266       .  A
C1095      C1246   1.470   1_556  S
O1097      C1112   1.257       .  A
O1097     Al1105   1.885       .  S
C1098      O1108   1.268       .  A
C1098      O1099   1.260       .  A
C1098      C1226   1.505       .  S
O1099     Al1101   1.912       .  S
O1100      C1102   1.259       .  A
O1100     Al1101   1.890       .  S
Al1101     O1109   1.897       .  S
Al1101     O1111   1.896       .  S
Al1101     O1110   1.781       .  S
C1102      O1115   1.261       .  A
C1102      C1206   1.473       .  S
O1103      C1113   1.254       .  A
O1103     Al1105   1.887       .  S
O1104      C1117   1.271       .  A
O1104     Al1114   1.946       .  S
Al1105     O1118   1.916       .  S
Al1105     O1115   1.910       .  S
Al1105     O1110   1.779       .  S
O1106      C1113   1.265       .  A
O1106     Al1114   1.937       .  S
O1107      C1116   1.266       .  A
O1107     Al1114   1.944       .  S
O1108     Al1114   1.917       .  S
O1109      C1116   1.257       .  A
O1110     Al1114   1.793       .  S
O1111      C1112   1.256       .  A
C1112      C1236   1.462       .  S
C1113      C1269   1.477       .  S
C1116      C1609   1.502   1_545  S
C1117      O1118   1.265       .  A
C1117      C1219   1.495       .  S
O1119      C1134   1.256       .  A
O1119     Al1127   1.879       .  S
C1120      O1130   1.267       .  A
C1120      O1121   1.260       .  A
C1120      C1249   1.508       .  S
O1121     Al1123   1.910       .  S
O1122      C1124   1.260       .  A
O1122     Al1123   1.897       .  S
Al1123     O1131   1.895       .  S
Al1123     O1133   1.910       .  S
Al1123     O1132   1.780       .  S
C1124      O1137   1.261       .  A
C1124      C1276   1.478       .  S
O1125      C1135   1.250       .  A
O1125     Al1127   1.866       .  S
O1126      C1139   1.272       .  A
O1126     Al1136   1.950       .  S
Al1127     O1140   1.916       .  S
Al1127     O1137   1.912       .  S
Al1127     O1132   1.777       .  S
O1128      C1135   1.263       .  A
O1128     Al1136   1.927       .  S
O1129      C1138   1.267       .  A
O1129     Al1136   1.945       .  S
O1130     Al1136   1.924       .  S
O1131      C1138   1.259       .  A
O1132     Al1136   1.794       .  S
O1133      C1134   1.259       .  A
C1134      C1256   1.463       .  S
C1135      C1196   1.461       .  S
C1138      C1439   1.509   1_545  S
C1139      O1140   1.264       .  A
C1139      C1216   1.498       .  S
O1141      C1156   1.264       .  A
O1141     Al1149   1.881       .  S
C1142      O1152   1.263       .  A
C1142      O1143   1.269       .  A
C1142      C1379   1.470       .  S
O1143     Al1145   1.927       .  S
O1144      C1146   1.256       .  A
O1144     Al1145   1.913       .  S
Al1145     O1153   1.950       .  S
Al1145     O1155   1.953       .  S
Al1145     O1154   1.800       .  S
C1146      O1159   1.250       .  A
C1146      C1209   1.490       .  S
O1147      C1157   1.260       .  A
O1147     Al1149   1.910       .  S
O1148      C1161   1.269       .  A
O1148     Al1158   1.934       .  S
Al1149     O1162   1.906       .  S
Al1149     O1159   1.877       .  S
Al1149     O1154   1.778       .  S
O1150      C1157   1.258       .  A
O1150     Al1158   1.908       .  S
O1151      C1160   1.250       .  A
O1151     Al1158   1.859       .  S
O1152     Al1158   1.879       .  S
O1153      C1160   1.265       .  A
O1154     Al1158   1.781       .  S
O1155      C1156   1.274       .  A
C1156      C1186   1.485       .  S
C1157      C1329   1.469       .  S
C1160      C1529   1.517       .  S
C1161      O1162   1.261       .  A
C1161      C1369   1.500   1_556  S
O1163      C1178   1.264       .  A
O1163     Al1171   1.908       .  S
C1164      O1174   1.255       .  A
C1164      O1165   1.259       .  A
C1164      C1239   1.455       .  S
O1165     Al1167   1.916       .  S
O1166      C1168   1.260       .  A
O1166     Al1167   1.907       .  S
Al1167     O1175   1.945       .  S
Al1167     O1177   1.929       .  S
Al1167     O1176   1.799       .  S
C1168      O1181   1.261       .  A
C1168      C1359   1.500       .  S
O1169      C1179   1.257       .  A
O1169     Al1171   1.901       .  S
O1170      C1183   1.260       .  A
O1170     Al1180   1.892       .  S
Al1171     O1184   1.926       .  S
Al1171     O1181   1.916       .  S
Al1171     O1176   1.792       .  S
O1172      C1179   1.258       .  A
O1172     Al1180   1.906       .  S
O1173      C1182   1.257       .  A
O1173     Al1180   1.879       .  S
O1174     Al1180   1.854       .  S
O1175      C1182   1.269       .  A
O1176     Al1180   1.785       .  S
O1177      C1178   1.265       .  A
C1178      C1189   1.490       .  S
C1179      C1199   1.475       .  S
C1182      C1399   1.506       .  S
C1183      O1184   1.265       .  A
C1183      C1229   1.476       .  S
C1185      C1186   1.410       .  A
C1185     Br1192   1.922       .  S
C1186      C1187   1.406   1_556  A
C1187     Br1194   1.931       .  S
C1188      C1189   1.416       .  A
C1188     Br1193   1.917       .  S
C1189      C1190   1.409       .  A
C1190     Br1191   1.923       .  S
C1195      C1196   1.407       .  A
C1195      C1200   1.410       .  A
C1195     Br1202   1.926       .  S
C1196      C1197   1.402       .  A
C1197      C1198   1.396       .  A
C1197     Br1204   1.933       .  S
C1198      C1199   1.410       .  A
C1198     Br1203   1.913       .  S
C1199      C1200   1.412       .  A
C1200     Br1201   1.928       .  S
C1205      C1206   1.411       .  A
C1205      C1210   1.412       .  A
C1205     Br1212   1.932       .  S
C1206      C1207   1.402       .  A
C1207      C1208   1.403       .  A
C1207     Br1214   1.931       .  S
C1208      C1209   1.418       .  A
C1208     Br1213   1.931       .  S
C1209      C1210   1.417       .  A
C1210     Br1211   1.933       .  S
C1215      C1216   1.412       .  A
C1215      C1220   1.417       .  A
C1215     Br1222   1.925       .  S
C1216      C1217   1.413       .  A
C1217      C1218   1.418       .  A
C1217     Br1224   1.927       .  S
C1218      C1219   1.411       .  A
C1218     Br1223   1.926       .  S
C1219      C1220   1.409       .  A
C1220     Br1221   1.927       .  S
C1225      C1226   1.418       .  A
C1225     Br1232   1.932       .  S
C1226      C1227   1.430       .  A
C1227      C1228   1.410       .  A
C1227     Br1234   1.931       .  S
C1228     Br1233   1.934   1_556  S
C1229      C1230   1.408       .  A
C1230     Br1231   1.927       .  S
C1235      C1236   1.411       .  A
C1235      C1240   1.398       .  A
C1235     Br1242   1.929       .  S
C1236      C1237   1.407       .  A
C1237      C1238   1.404       .  A
C1237     Br1244   1.928       .  S
C1238      C1239   1.406       .  A
C1238     Br1243   1.929       .  S
C1239      C1240   1.403       .  A
C1240     Br1241   1.930       .  S
C1245      C1250   1.412       .  A
C1247      C1248   1.412       .  A
C1247     Br1254   1.930       .  S
C1248      C1249   1.429       .  A
C1248     Br1253   1.937       .  S
C1249      C1250   1.419       .  A
C1250     Br1251   1.932       .  S
C1255      C1256   1.414       .  A
C1255      C1260   1.398       .  A
C1255     Br1262   1.927       .  S
C1256      C1257   1.406       .  A
C1257      C1258   1.403       .  A
C1257     Br1264   1.927       .  S
C1258      C1259   1.407       .  A
C1258     Br1263   1.930       .  S
C1259      C1260   1.401       .  A
C1260     Br1261   1.933       .  S
C1265      C1266   1.415       .  A
C1265      C1270   1.402       .  A
C1265     Br1272   1.918       .  S
C1266      C1267   1.415       .  A
C1267      C1268   1.416       .  A
C1267     Br1274   1.928       .  S
C1268      C1269   1.409       .  A
C1268     Br1273   1.925       .  S
C1269      C1270   1.403       .  A
C1270     Br1271   1.931       .  S
C1275      C1276   1.409       .  A
C1275      C1280   1.406       .  A
C1275     Br1282   1.930       .  S
C1276      C1277   1.413       .  A
C1277      C1278   1.411       .  A
C1277     Br1284   1.931       .  S
C1278      C1279   1.413       .  A
C1278     Br1283   1.933       .  S
C1279      C1280   1.412       .  A
C1280     Br1281   1.928       .  S
C1285      C1286   1.406       .  A
C1285      C1290   1.403       .  A
C1285     Br1292   1.918       .  S
C1286      C1287   1.406       .  A
C1287     Br1294   1.930       .  S
C1288      C1289   1.416       .  A
C1288     Br1293   1.921       .  S
C1290     Br1291   1.922       .  S
C1295      C1296   1.405       .  A
C1295      C1300   1.409       .  A
C1295     Br1302   1.928       .  S
C1296      C1297   1.409       .  A
C1297      C1298   1.400       .  A
C1297     Br1304   1.928       .  S
C1298      C1299   1.407       .  A
C1298     Br1303   1.927       .  S
C1299      C1300   1.413       .  A
C1300     Br1301   1.929       .  S
C1305      C1306   1.407       .  A
C1305     Br1312   1.927       .  S
C1306      C1307   1.399       .  A
C1307      C1308   1.400       .  A
C1307     Br1314   1.929       .  S
C1308     Br1313   1.940       .  S
C1309      C1310   1.422       .  A
C1310     Br1311   1.927       .  S
C1315      C1316   1.408       .  A
C1315      C1320   1.405       .  A
C1315     Br1322   1.935       .  S
C1316      C1317   1.410       .  A
C1317      C1318   1.411       .  A
C1317     Br1324   1.933       .  S
C1318      C1319   1.418       .  A
C1318     Br1323   1.933       .  S
C1319      C1320   1.419       .  A
C1320     Br1321   1.935       .  S
C1325      C1326   1.415       .  A
C1325      C1330   1.407       .  A
C1325     Br1332   1.934       .  S
C1326      C1327   1.410       .  A
C1327      C1328   1.406       .  A
C1327     Br1334   1.928       .  S
C1328      C1329   1.408       .  A
C1328     Br1333   1.931       .  S
C1329      C1330   1.407       .  A
C1330     Br1331   1.929       .  S
C1335      C1336   1.412       .  A
C1335      C1340   1.403       .  A
C1335     Br1342   1.932       .  S
C1336      C1337   1.410       .  A
C1337      C1338   1.405       .  A
C1337     Br1344   1.927       .  S
C1338      C1339   1.406       .  A
C1338     Br1343   1.931       .  S
C1339      C1340   1.404       .  A
C1340     Br1341   1.927       .  S
C1345      C1346   1.412       .  A
C1345      C1350   1.415       .  A
C1345     Br1352   1.927       .  S
C1346      C1347   1.411       .  A
C1347      C1348   1.413       .  A
C1347     Br1354   1.922       .  S
C1348      C1349   1.410       .  A
C1348     Br1353   1.928       .  S
C1349      C1350   1.410       .  A
C1350     Br1351   1.926       .  S
C1355      C1356   1.410       .  A
C1355      C1360   1.412       .  A
C1355     Br1362   1.934       .  S
C1356      C1357   1.412       .  A
C1357      C1358   1.411       .  A
C1357     Br1364   1.934       .  S
C1358      C1359   1.418       .  A
C1358     Br1363   1.935       .  S
C1359      C1360   1.420       .  A
C1360     Br1361   1.931       .  S
C1365      C1366   1.396       .  A
C1365      C1370   1.397       .  A
C1365     Br1372   1.926       .  S
C1366      C1367   1.405       .  A
C1367      C1368   1.414       .  A
C1367     Br1374   1.928       .  S
C1375      C1376   1.409       .  A
C1375      C1380   1.400       .  A
C1375     Br1382   1.927       .  S
C1376      C1377   1.402       .  A
C1377      C1378   1.404       .  A
C1377     Br1384   1.929       .  S
C1378      C1379   1.412       .  A
C1378     Br1383   1.918       .  S
C1379      C1380   1.407       .  A
C1380     Br1381   1.927       .  S
C1385      C1386   1.425       .  A
C1385      C1390   1.401       .  A
C1385     Br1392   1.943   1_545  S
C1386      C1387   1.415       .  A
C1387      C1388   1.421       .  A
C1387     Br1394   1.929       .  S
C1388      C1389   1.418       .  A
C1388     Br1393   1.927       .  S
C1389      C1390   1.406       .  A
C1390     Br1391   1.934   1_455  S
C1395      C1396   1.420       .  A
C1395      C1400   1.424       .  A
C1395     Br1402   1.929       .  S
C1396      C1397   1.419       .  A
C1397      C1398   1.407       .  A
C1397     Br1404   1.931   1_545  S
C1398      C1399   1.413       .  A
C1398     Br1403   1.940       .  S
C1399      C1400   1.418       .  A
C1400     Br1401   1.928       .  S
C1405      C1406   1.411   1_545  A
C1405      C1410   1.417       .  A
C1405     Br1412   1.923       .  S
C1406      C1407   1.404       .  A
C1407      C1408   1.407       .  A
C1407     Br1414   1.928       .  S
C1408      C1409   1.411       .  A
C1408     Br1413   1.914       .  S
C1409      C1410   1.409   1_565  A
C1410     Br1411   1.925       .  S
C1415      C1416   1.418       .  A
C1415      C1420   1.406       .  A
C1415     Br1422   1.941       .  S
C1416      C1417   1.421       .  A
C1417      C1418   1.423       .  A
C1417     Br1424   1.927       .  S
C1418      C1419   1.414       .  A
C1418     Br1423   1.929       .  S
C1419      C1420   1.417       .  A
C1420     Br1421   1.932       .  S
C1425      C1426   1.432       .  A
C1425      C1430   1.406       .  A
C1425     Br1432   1.940       .  S
C1426      C1427   1.420       .  A
C1427      C1428   1.411       .  A
C1427     Br1434   1.931       .  S
C1428      C1429   1.408       .  A
C1428     Br1433   1.932       .  S
C1429      C1430   1.401       .  A
C1430     Br1431   1.937   1_455  S
C1435      C1436   1.415       .  A
C1435      C1440   1.410       .  A
C1435     Br1442   1.932   1_655  S
C1436      C1437   1.414       .  A
C1437      C1438   1.418       .  A
C1437     Br1444   1.932       .  S
C1438      C1439   1.421       .  A
C1438     Br1443   1.933       .  S
C1439      C1440   1.422       .  A
C1440     Br1441   1.940   1_565  S
C1445      C1446   1.408       .  A
C1445      C1450   1.408       .  A
C1445     Br1452   1.935       .  S
C1446      C1447   1.408       .  A
C1447      C1448   1.411       .  A
C1447     Br1454   1.935       .  S
C1448      C1449   1.424       .  A
C1448     Br1453   1.926       .  S
C1449      C1450   1.424       .  A
C1450     Br1451   1.936       .  S
C1455      C1460   1.422       .  A
C1455     Br1462   1.924       .  S
C1456      C1457   1.412       .  A
C1457     Br1464   1.915       .  S
C1458      C1459   1.409       .  A
C1458     Br1463   1.924   1_655  S
C1459      C1460   1.409       .  A
C1460     Br1461   1.925       .  S
C1465      C1466   1.407       .  A
C1465      C1470   1.414       .  A
C1465     Br1472   1.929   1_455  S
C1466      C1467   1.405       .  A
C1467      C1468   1.398       .  A
C1467     Br1474   1.917       .  S
C1468      C1469   1.414       .  A
C1468     Br1473   1.941       .  S
C1469      C1470   1.420       .  A
C1470     Br1471   1.930       .  S
C1475      C1476   1.412       .  A
C1475     Br1482   1.931   1_565  S
C1476      C1477   1.406       .  A
C1477      C1478   1.400       .  A
C1477     Br1484   1.927       .  S
C1479      C1480   1.416       .  A
C1480     Br1481   1.932       .  S
C1485      C1486   1.428       .  A
C1485      C1490   1.401       .  A
C1485     Br1492   1.937       .  S
C1486      C1487   1.412       .  A
C1487      C1488   1.418       .  A
C1487     Br1494   1.930       .  S
C1488      C1489   1.419       .  A
C1488     Br1493   1.928       .  S
C1489      C1490   1.399       .  A
C1490     Br1491   1.938   1_455  S
C1495      C1496   1.406       .  A
C1495      C1500   1.402       .  A
C1495     Br1502   1.928       .  S
C1496      C1497   1.414       .  A
C1497      C1498   1.411       .  A
C1497     Br1504   1.931       .  S
C1498      C1499   1.408       .  A
C1498     Br1503   1.927       .  S
C1499      C1500   1.412       .  A
C1500     Br1501   1.926       .  S
C1505      C1506   1.396       .  A
C1505      C1510   1.396       .  A
C1505     Br1512   1.933       .  S
C1506      C1507   1.403       .  A
C1507      C1508   1.413       .  A
C1507     Br1514   1.930       .  S
C1515      C1516   1.417       .  A
C1515      C1520   1.412       .  A
C1515     Br1522   1.932       .  S
C1516      C1517   1.420       .  A
C1517      C1518   1.401       .  A
C1517     Br1524   1.933       .  S
C1518      C1519   1.401       .  A
C1518     Br1523   1.920       .  S
C1519      C1520   1.407       .  A
C1520     Br1521   1.919       .  S
C1525      C1526   1.411       .  A
C1525      C1530   1.395       .  A
C1525     Br1532   1.943       .  S
C1526      C1527   1.422       .  A
C1527      C1528   1.431       .  A
C1527     Br1534   1.929       .  S
C1528      C1529   1.426       .  A
C1528     Br1533   1.928       .  S
C1529      C1530   1.421       .  A
C1530     Br1531   1.940       .  S
C1535      C1536   1.411       .  A
C1535      C1540   1.404       .  A
C1535     Br1542   1.923       .  S
C1536      C1537   1.420       .  A
C1537      C1538   1.402       .  A
C1537     Br1544   1.937       .  S
C1538      C1539   1.403       .  A
C1538     Br1543   1.929       .  S
C1539      C1540   1.404       .  A
C1540     Br1541   1.931       .  S
C1545      C1546   1.421       .  A
C1545      C1550   1.416       .  A
C1545     Br1552   1.931       .  S
C1546      C1547   1.415       .  A
C1547      C1548   1.410       .  A
C1547     Br1554   1.931       .  S
C1548      C1549   1.409       .  A
C1548     Br1553   1.920       .  S
C1549      C1550   1.407       .  A
C1550     Br1551   1.926       .  S
C1555      C1556   1.418       .  A
C1555      C1560   1.424       .  A
C1555     Br1562   1.928       .  S
C1556      C1557   1.411       .  A
C1557      C1558   1.405       .  A
C1557     Br1564   1.940       .  S
C1558      C1559   1.420       .  A
C1558     Br1563   1.928       .  S
C1559      C1560   1.419       .  A
C1560     Br1561   1.930       .  S
C1565      C1566   1.407       .  A
C1565     Br1572   1.933       .  S
C1567      C1568   1.413   1_554  A
C1567     Br1574   1.924       .  S
C1568      C1569   1.411       .  A
C1568     Br1573   1.924       .  S
C1569      C1570   1.420       .  A
C1570     Br1571   1.929       .  S
C1575      C1576   1.414       .  A
C1575      C1580   1.410       .  A
C1575     Br1582   1.931       .  S
C1576      C1577   1.411       .  A
C1577      C1578   1.407       .  A
C1577     Br1584   1.927       .  S
C1578      C1579   1.411       .  A
C1578     Br1583   1.931       .  S
C1579      C1580   1.408       .  A
C1580     Br1581   1.930       .  S
C1585      C1586   1.408       .  A
C1585      C1590   1.407       .  A
C1585     Br1592   1.939       .  S
C1586      C1587   1.409       .  A
C1587      C1588   1.408       .  A
C1587     Br1594   1.930       .  S
C1588      C1589   1.422       .  A
C1588     Br1593   1.935       .  S
C1589      C1590   1.429       .  A
C1590     Br1591   1.943       .  S
C1595      C1596   1.405       .  A
C1595      C1600   1.407       .  A
C1595     Br1602   1.936       .  S
C1596      C1597   1.399       .  A
C1597      C1598   1.407       .  A
C1597     Br1604   1.930       .  S
C1598      C1599   1.428       .  A
C1598     Br1603   1.934       .  S
C1599      C1600   1.425       .  A
C1600     Br1601   1.937       .  S
C1605      C1606   1.422       .  A
C1605      C1610   1.408       .  A
C1605     Br1612   1.943       .  S
C1606      C1607   1.416       .  A
C1607      C1608   1.418       .  A
C1607     Br1614   1.932       .  S
C1608      C1609   1.417       .  A
C1608     Br1613   1.931       .  S
C1609      C1610   1.420       .  A
C1610     Br1611   1.943   1_565  S
C1615      C1616   1.408       .  A
C1615      C1620   1.415       .  A
C1615     Br1622   1.926       .  S
C1616      C1617   1.399       .  A
C1617      C1618   1.399       .  A
C1617     Br1624   1.929       .  S
C1618      C1619   1.417       .  A
C1618     Br1623   1.920       .  S
C1619      C1620   1.419       .  A
C1620     Br1621   1.930       .  S
C1625      C1626   1.413       .  A
C1625      C1630   1.396       .  A
C1625     Br1632   1.924       .  S
C1626      C1627   1.413       .  A
C1627     Br1634   1.924       .  S
C1628      C1629   1.410       .  A
C1628     Br1633   1.928       .  S
C1630     Br1631   1.925       .  S
C1635      C1636   1.409       .  A
C1635      C1640   1.400       .  A
C1635     Br1642   1.925       .  S
C1636      C1637   1.414       .  A
C1637      C1638   1.403       .  A
C1637     Br1644   1.937       .  S
C1638      C1639   1.411       .  A
C1638     Br1643   1.936       .  S
C1639      C1640   1.409       .  A
C1640     Br1641   1.931       .  S
C1645      C1646   1.412       .  A
C1645      C1650   1.407       .  A
C1645     Br1652   1.916       .  S
C1646      C1647   1.402       .  A
C1647      C1648   1.410       .  A
C1647     Br1654   1.932       .  S
C1648      C1649   1.422       .  A
C1648     Br1653   1.919       .  S
C1649      C1650   1.411       .  A
C1650     Br1651   1.933       .  S
C1655      C1656   1.421       .  A
C1655      C1660   1.399       .  A
C1655     Br1662   1.939       .  S
C1656      C1657   1.413       .  A
C1657      C1658   1.409       .  A
C1658      C1659   1.407       .  A
C1658     Br1663   1.924   1_565  S
C1659      C1660   1.401       .  A
C1660     Br1661   1.929       .  S
