geometry optimzed in LAMMPS
_audit_creation_date              2020-11-30 
_audit_creation_method            'lammps2cif' 
_symmetry_space_group_name_H-M    'P1' 
_symmetry_Int_Tables_number       1 
_symmetry_cell_setting            triclinic 
loop_ 
_symmetry_equiv_pos_as_xyz 
  x,y,z 
_cell_length_a                    32.78719488019557 
_cell_length_b                    33.20622228953856 
_cell_length_c                    45.55428074296349 
_cell_angle_alpha                 90.05889590795175 
_cell_angle_beta                  90.26278155777878 
_cell_angle_gamma                 120.69871932156397 
loop_ 
_atom_site_label 
_atom_site_type_symbol 
_atom_site_fract_x 
_atom_site_fract_y 
_atom_site_fract_z 
_atom_site_charge 
Fe1        Fe  0.12521154  0.69601673  0.31238788     1.65780
Fe2        Fe  0.13677812  0.77277897  0.36540188     1.73250
Fe3        Fe  0.23534349  0.78530278  0.33241516     1.54420
O4          O  0.24010613  0.72653074  0.32112255    -0.82510
O5          O  0.17454914  0.84178093  0.35259049    -0.80810
O6          O  0.16599093  0.66752844  0.31988487    -0.85010
O7          O  0.16270351  0.72913386  0.27580236    -0.79870
O8          O  0.24467392  0.77428888  0.37607932    -0.81640
O9          O  0.08184726  0.76388191  0.33735681    -0.84390
C10         C  0.19928830  0.76780459  0.26943390     0.96380
C11         C  0.21001579  0.68304070  0.31922878     1.03820
O12         O  0.16561321  0.75139300  0.33664328    -1.13370
O13         O  0.09554855  0.70681156  0.38206258    -0.75800
O14         O  0.08271214  0.65594976  0.34613161    -0.79290
O15         O  0.22838123  0.79667393  0.28837946    -0.79980
C16         C  0.07530410  0.66563503  0.37165061     0.95280
O17         O  0.07784296  0.71660315  0.30164090    -0.77940
O18         O  0.18780137  0.78319015  0.39673712    -0.83130
C19         C  0.21906067  0.86785043  0.35076073     0.97900
C20         C  0.22453379  0.77933679  0.39842212     1.03820
O21         O  0.24530742  0.85124329  0.34404102    -0.78770
C22         C  0.06285570  0.74074741  0.31390419     1.02120
Fe23       Fe  0.70704136  0.58957805  0.22867584     1.65780
Fe24       Fe  0.77881979  0.65159564  0.28217010     1.73250
Fe25       Fe  0.79024767  0.56749336  0.25242821     1.54410
O26         O  0.72805777  0.50645439  0.23621136    -0.82510
O27         O  0.84845434  0.68861917  0.26958988    -0.80810
O28         O  0.67245214  0.52321684  0.24563637    -0.85010
O29         O  0.73662302  0.56953424  0.19497286    -0.79870
O30         O  0.77016380  0.54518679  0.29563096    -0.81640
O31         O  0.76028738  0.69306138  0.25396913    -0.84390
C32         C  0.77902414  0.57989606  0.18928196     0.96380
C33         C  0.68435784  0.49504591  0.23581840     1.03820
O34         O  0.76139269  0.60507251  0.25302953    -1.13370
O35         O  0.71251890  0.60873167  0.29564760    -0.75800
O36         O  0.67213044  0.61143940  0.25931142    -0.79290
O37         O  0.80901329  0.58904845  0.20978778    -0.79980
C38         C  0.68148974  0.61634490  0.28660900     0.95280
O39         O  0.74202182  0.65514874  0.21151910    -0.77940
O40         O  0.79486344  0.61609763  0.31394774    -0.83130
C41         C  0.87373522  0.66958721  0.27087840     0.97900
C42         C  0.77962569  0.57261182  0.31749085     1.03820
O43         O  0.85602739  0.62525998  0.26721988    -0.78770
C44         C  0.74768579  0.68942405  0.22674305     1.02120
Fe45       Fe  0.58480746  0.88701100  0.14707913     1.65780
Fe46       Fe  0.66838519  0.88188680  0.18712521     1.73250
Fe47       Fe  0.57011912  0.78459268  0.16799677     1.54410
O48         O  0.50480164  0.77966147  0.15734596    -0.82510
O49         O  0.69309070  0.84222546  0.16706287    -0.80810
O50         O  0.52021411  0.85078130  0.16694789    -0.85010
O51         O  0.56254676  0.83935798  0.11251225    -0.79870
O52         O  0.56126404  0.78805116  0.21298812    -0.81640
O53         O  0.70304596  0.93798639  0.15709004    -0.84390
C54         C  0.57255930  0.80830499  0.10511731     0.96380
C55         C  0.49124955  0.80921616  0.15913163     1.03820
O56         O  0.60843656  0.85192128  0.16693360    -1.13370
O57         O  0.64727714  0.91911151  0.21061684    -0.75800
O58         O  0.60566241  0.93764913  0.18038781    -0.79290
O59         O  0.58279141  0.78640123  0.12395568    -0.79980
C60         C  0.62757455  0.94224387  0.20445799     0.95280
O61         O  0.64706653  0.92571405  0.12490021    -0.77940
O62         O  0.63880571  0.83274897  0.21997618    -0.83130
C63         C  0.67259419  0.79918835  0.17412209     0.97900
C64         C  0.59729854  0.80750430  0.23017133     1.03820
O65         O  0.62771823  0.77582840  0.17727599    -0.78770
C66         C  0.68893978  0.95041583  0.13449121     1.02120
Fe67       Fe  0.58382456  0.70145035  0.43880974     1.65780
Fe68       Fe  0.66902387  0.78792283  0.39920816     1.73250
Fe69       Fe  0.57415639  0.79209886  0.41910228     1.54420
O70         O  0.50733396  0.73203021  0.42877370    -0.82800
O71         O  0.69701169  0.85133655  0.42093010    -0.80810
O72         O  0.52204032  0.67729061  0.41652116    -0.85010
O73         O  0.56155011  0.72682808  0.47319670    -0.79870
O74         O  0.56418318  0.77819680  0.37432790    -0.81640
O75         O  0.70038640  0.76220299  0.42897026    -0.84390
C76         C  0.57280046  0.76795877  0.48145516     0.96380
C77         C  0.49331845  0.68883094  0.42568723     1.03820
O78         O  0.61023537  0.76094380  0.41996825    -1.13370
O79         O  0.64396581  0.72926530  0.37456879    -0.75800
O80         O  0.60347823  0.67077760  0.40581852    -0.79290
O81         O  0.58613443  0.80150941  0.46327915    -0.79980
C82         C  0.62290790  0.68646782  0.38105478     0.95280
O83         O  0.64463158  0.72283997  0.46224028    -0.77940
O84         O  0.64130281  0.81187540  0.36722388    -0.83130
C85         C  0.67960108  0.87697589  0.41497517     0.97900
C86         C  0.59914925  0.79106520  0.35703612     1.03820
O87         O  0.63485106  0.85892592  0.41132479    -0.78770
C88         C  0.68554089  0.73700275  0.45216046     1.02120
Fe89       Fe  0.32747566  0.42703750  0.47867417     1.65780
Fe90       Fe  0.24516683  0.35627991  0.02812803     1.73250
Fe91       Fe  0.24583630  0.45180327  0.50393893     1.54410
O92         O  0.30608764  0.51312050  0.48878117    -0.82510
O93         O  0.17649857  0.33122962  0.01261753    -0.80810
O94         O  0.36277593  0.49642960  0.48969167    -0.85010
O95         O  0.29104826  0.43540001  0.44382019    -0.79870
O96         O  0.26469294  0.46784584  0.04789641    -0.81640
O97         O  0.25237580  0.31244830  0.99752888    -0.84390
C98         C  0.25239952  0.43534409  0.43990440     0.96380
C99         C  0.34869095  0.52433050  0.48396073     1.03820
O100        O  0.27304210  0.41133107  0.00328649    -1.13370
O101        O  0.31044711  0.37709128  0.04576852    -0.75800
O102        O  0.36577367  0.41883223  0.01211987    -0.79290
O103        O  0.22667107  0.43578858  0.46063605    -0.79980
C104        C  0.35316433  0.39929649  0.03706697     0.95280
O105        O  0.30267941  0.36006196  0.46429550    -0.77940
O106        O  0.23632888  0.39370593  0.06231203    -0.83130
C107        C  0.15502295  0.35365434  0.01553628     0.97900
C108        C  0.25000777  0.43662366  0.06788511     1.03820
O109        O  0.17880214  0.39813850  0.01696153    -0.78770
C110        C  0.27645027  0.31925654  0.47420890     1.02120
Fe111      Fe  0.89742854  0.31529740  0.06553877     1.65780
Fe112      Fe  0.88543500  0.22794415  0.10771243     1.73250
Fe113      Fe  0.79021925  0.22901172  0.08432974     1.54410
O114        O  0.79046082  0.29097815  0.07260239    -0.82510
O115        O  0.84638804  0.16429650  0.08623566    -0.80810
O116        O  0.86145588  0.34128599  0.08732835    -0.85010
O117        O  0.85076345  0.29028030  0.02934352    -0.79870
O118        O  0.79181172  0.24198704  0.12908160    -0.81640
O119        O  0.94501881  0.25059691  0.07906440    -0.84390
C120        C  0.81692645  0.24940029  0.02197938     0.96380
C121        C  0.82340046  0.33333980  0.07564420     1.03820
O122        O  0.85829792  0.25646791  0.08469834    -1.13370
O123        O  0.92031377  0.28708573  0.13134600    -0.75800
O124        O  0.94906336  0.34480298  0.09889139    -0.79290
O125        O  0.79168743  0.21748122  0.04039725    -0.79980
C126        C  0.94980619  0.32850082  0.12396868     0.95280
O127        O  0.93550520  0.29159007  0.04401918    -0.77940
O128        O  0.83335947  0.20756342  0.14041679    -0.83130
C129        C  0.80188002  0.14094095  0.09050438     0.97900
C130        C  0.80788017  0.22493615  0.14788908     1.03820
O131        O  0.77879068  0.16211072  0.09370127    -0.78770
C132        C  0.95946426  0.27577267  0.05576729     1.02120
Fe133      Fe  0.43524257  0.12037783  0.39993015     1.65780
Fe134      Fe  0.36670209  0.13210772  0.44795566     1.73250
Fe135      Fe  0.45629267  0.22711506  0.41951604     1.54420
O136        O  0.51968182  0.22836165  0.40745523    -0.82510
O137        O  0.33293919  0.16398208  0.43022180    -0.80810
O138        O  0.50123289  0.15645720  0.41814009    -0.85010
O139        O  0.45391071  0.16559723  0.36390300    -0.79870
O140        O  0.47487029  0.23040868  0.46354149    -0.81640
O141        O  0.32602147  0.07184575  0.41983449    -0.84390
C142        C  0.44407689  0.19715334  0.35714389     0.96380
C143        C  0.53182533  0.19771605  0.41082838     1.03820
O144        O  0.41756748  0.15982704  0.42096295    -1.13370
O145        O  0.40418110  0.10777360  0.46787465    -0.75800
O146        O  0.41496522  0.06870191  0.43323183    -0.79290
O147        O  0.43809398  0.22196651  0.37605093    -0.79980
C148        C  0.40620567  0.07309130  0.45983640     0.95280
O149        O  0.37021374  0.08202910  0.38099783    -0.77940
O150        O  0.40098822  0.18534174  0.47946328    -0.83130
C151        C  0.35236905  0.20819689  0.43218144     0.97900
C152        C  0.44520307  0.21277832  0.48439570     1.03820
O153        O  0.39764069  0.23521660  0.43072109    -0.78770
C154        C  0.33109264  0.05908712  0.39407645     1.02120
Fe155      Fe  0.70396855  0.11577671  0.36076609     1.65780
Fe156      Fe  0.79020694  0.13193199  0.31455596     1.73250
Fe157      Fe  0.78549515  0.22336988  0.33687252     1.54420
O158        O  0.72234697  0.22024715  0.34964365    -0.82510
O159        O  0.85697104  0.17304405  0.33254608    -0.80810
O160        O  0.66883833  0.14628991  0.34246537    -0.85010
O161        O  0.73160158  0.16484402  0.39538015    -0.79870
O162        O  0.76855634  0.21901494  0.29231244    -0.81640
O163        O  0.77556508  0.07670014  0.34470426    -0.84390
C164        C  0.77173643  0.20187413  0.40056388     0.96380
C165        C  0.67956827  0.18679139  0.35093664     1.03820
O166        O  0.76096391  0.15689147  0.33873073    -1.13370
O167        O  0.72748283  0.09702983  0.29457464    -0.75800
O168        O  0.67361651  0.06136893  0.32866666    -0.79290
O169        O  0.80117470  0.22645599  0.38064067    -0.79980
C170        C  0.68950578  0.06253589  0.30300337     0.95280
O171        O  0.73376094  0.08207322  0.38079398    -0.77940
O172        O  0.80487541  0.18002143  0.28032103    -0.83130
C173        C  0.87793268  0.21688759  0.32833469     0.97900
C174        C  0.78523690  0.20340571  0.27305445     1.03820
O175        O  0.85361162  0.23694873  0.32611630    -0.78770
C176        C  0.75514247  0.06312683  0.36969977     1.02120
Fe177      Fe  0.31144232  0.89312391  0.11400892     1.65780
Fe178      Fe  0.24518433  0.88286423  0.05683943     1.73250
Fe179      Fe  0.23352201  0.78671472  0.08457245     1.54410
O180        O  0.29380645  0.78787129  0.10283387    -0.82510
O181        O  0.17480708  0.84860381  0.06767246    -0.80810
O182        O  0.35080684  0.86293796  0.10402331    -0.85010
O183        O  0.27446927  0.84406181  0.14602390    -0.79870
O184        O  0.25897499  0.78975235  0.04191721    -0.81640
O185        O  0.26017336  0.94170437  0.08473704    -0.84390
C186        C  0.23375703  0.80716186  0.14811095     0.96380
C187        C  0.33650287  0.82007992  0.10851624     1.03820
O188        O  0.26122473  0.85345669  0.08653158    -1.13370
O189        O  0.31260944  0.90731894  0.04539251    -0.75800
O190        O  0.35079076  0.94896182  0.08350055    -0.79290
O191        O  0.20903094  0.78286080  0.12631204    -0.79980
C192        C  0.34405206  0.94493583  0.05580832     0.95280
O193        O  0.27553029  0.92419148  0.12785603    -0.77940
O194        O  0.23144964  0.83337628  0.02431533    -0.83130
C195        C  0.15020817  0.80413812  0.06545493     0.97900
C196        C  0.24939337  0.80779547  0.02022690     1.03820
O197        O  0.16859364  0.77811223  0.06811741    -0.78770
C198        C  0.26913873  0.95130697  0.11204944     1.02120
Fe199      Fe  0.13563150  0.43516938  0.27582481     1.65780
Fe200      Fe  0.14433349  0.35852537  0.23230115     1.73250
Fe201      Fe  0.24223088  0.45466121  0.25552839     1.54420
O202        O  0.24455285  0.51607196  0.27058963    -0.82510
O203        O  0.18700328  0.33558902  0.24956774    -0.80810
O204        O  0.17369620  0.50034792  0.25815687    -0.85010
O205        O  0.18140109  0.44964179  0.31172471    -0.79870
O206        O  0.23995762  0.47025071  0.21149896    -0.81640
O207        O  0.08894444  0.31866696  0.26304360    -0.84390
C208        C  0.21491074  0.44200679  0.31804920     0.96380
C209        C  0.21338049  0.52785282  0.26942127     1.03820
O210        O  0.17318367  0.41501116  0.25507303    -1.13370
O211        O  0.10160034  0.37599217  0.21282825    -0.75800
O212        O  0.08572186  0.41946101  0.24210816    -0.79290
O213        O  0.24035077  0.43702702  0.29888871    -0.79980
C214        C  0.07736277  0.39417549  0.21939859     0.95280
O215        O  0.09316593  0.37181767  0.29476960    -0.77940
O216        O  0.19203152  0.39530098  0.19767338    -0.83130
C217        C  0.23003823  0.35646792  0.24189851     0.97900
C218        C  0.21973145  0.43893582  0.19147671     1.03820
O219        O  0.25422187  0.40101356  0.24192076    -0.78770
C220        C  0.07195218  0.33069412  0.28445356     1.02120
Fe221      Fe  0.89735383  0.58189122  0.01821897     1.65780
Fe222      Fe  0.87963562  0.65571654  0.47724721     1.73250
Fe223      Fe  0.78838496  0.55885719  0.00481735     1.54410
O224        O  0.78903155  0.49922850  0.02030417    -0.82510
O225        O  0.83736869  0.67588651  0.49822073    -0.80810
O226        O  0.85580385  0.51583436  0.00163501    -0.85010
O227        O  0.85798547  0.56813017  0.05746634    -0.79870
O228        O  0.78424406  0.54056734  0.46110609    -0.81640
O229        O  0.93487724  0.69790778  0.00638012    -0.84390
C230        C  0.82354214  0.57330142  0.06587598     0.96380
C231        C  0.82028160  0.48836679  0.01629199     1.03820
O232        O  0.85642849  0.60029492  0.00057491    -1.13370
O233        O  0.92463557  0.64279087  0.45455624    -0.75800
O234        O  0.93684335  0.59362095  0.48071597    -0.79290
O235        O  0.79799072  0.57993254  0.04755528    -0.79980
C236        C  0.94313139  0.61786947  0.45784686     0.95280
O237        O  0.94516807  0.64795694  0.03392592    -0.77940
O238        O  0.82775612  0.61506007  0.44496229    -0.83130
C239        C  0.79308098  0.65349924  0.49464102     0.97900
C240        C  0.79991477  0.57079782  0.44044341     1.03820
O241        O  0.77168736  0.60934528  0.99235598    -0.78770
C242        C  0.95769022  0.68927707  0.02575416     1.02120
Fe243      Fe  0.42034837  0.30536583  0.19464825     1.65780
Fe244      Fe  0.36566971  0.23304887  0.13944447     1.73250
Fe245      Fe  0.45144716  0.22701020  0.17259292     1.54410
O246        O  0.51317868  0.29038658  0.18520585    -0.82510
O247        O  0.32821541  0.16599057  0.15426846    -0.80810
O248        O  0.49064529  0.34307484  0.18444588    -0.85010
O249        O  0.43411078  0.27603423  0.23100433    -0.79870
O250        O  0.47347512  0.24500426  0.12923634    -0.81640
O251        O  0.32081528  0.25169031  0.16221335    -0.84390
C252        C  0.43299022  0.23763821  0.23602523     0.96380
C253        C  0.52302888  0.33290979  0.18564735     1.03820
O254        O  0.41079614  0.25291008  0.17064725    -1.13370
O255        O  0.41040051  0.29772490  0.12496652    -0.75800
O256        O  0.40584903  0.34003902  0.15976503    -0.79290
O257        O  0.43291445  0.21081328  0.21596180    -0.79980
C258        C  0.40625202  0.33139103  0.13247384     0.95280
O259        O  0.35065493  0.27029660  0.20703715    -0.77940
O260        O  0.40134166  0.21357183  0.11073376    -0.83130
C261        C  0.34834428  0.14179742  0.15468500     0.97900
C262        C  0.44554578  0.23178128  0.10734826     1.03820
O263        O  0.39320346  0.16022530  0.15960636    -0.78770
C264        C  0.31826926  0.26244817  0.18885459     1.02120
C265        C  0.25827962  0.25958231  0.22502623    -0.02680
C266        C  0.28290853  0.27550843  0.19821406     0.07000
C267        C  0.28576825  0.31509062  0.18519954    -0.02790
C268        C  0.27490478  0.34427189  0.20141958    -0.02800
C269        C  0.25017074  0.32909531  0.22834890     0.07130
C270        C  0.24014531  0.28510861  0.23942496    -0.02990
Br271      Br  0.20542906  0.26155007  0.27551715    -0.01540
Br272      Br  0.24606367  0.20069943  0.24046131    -0.01610
Br273      Br  0.29924280  0.40646033  0.18670460    -0.01570
Br274      Br  0.30215707  0.32879911  0.14446663    -0.01560
C275        C  0.08782768  0.78320610  0.02691992    -0.02680
C276        C  0.09959188  0.78191959  0.05661413     0.07000
C277        C  0.06308412  0.75678474  0.07697493    -0.02790
C278        C  0.01538060  0.73055733  0.06736714    -0.02800
C279        C  0.00402687  0.72781975  0.03716283     0.07130
C280        C  0.04049970  0.75565664  0.01709404    -0.02990
Br281      Br  0.02718297  0.75255089  0.47549960    -0.01540
Br282      Br  0.13698324  0.82055139  0.99905711    -0.01610
Br283      Br  0.96540510  0.69883499  0.09559243    -0.01570
Br284      Br  0.07885160  0.75793271  0.11791670    -0.01560
C285        C  0.29667454  0.01007979  0.15496130    -0.02680
C286        C  0.27850040  0.99719293  0.12553781     0.07000
C287        C  0.27593573  0.03159210  0.10841679    -0.02790
C288        C  0.29791820  0.07856264  0.11820952    -0.02800
C289        C  0.31998822  0.09156849  0.14609938     0.07130
C290        C  0.31694950  0.05683042  0.16488973    -0.02990
Br291      Br  0.34025869  0.07406077  0.20474981    -0.01540
Br292      Br  0.29518493  0.96587158  0.18324077    -0.01610
Br293      Br  0.30052039  0.12575302  0.09211491    -0.01570
Br294      Br  0.24053998  0.01573354  0.07212299    -0.01560
C295        C  0.95971912  0.22542322  0.31784604    -0.02680
C296        C  0.93063230  0.24550714  0.32223292     0.07000
C297        C  0.95111764  0.29396568  0.31665039    -0.02790
C298        C  0.99394262  0.31853055  0.30141472    -0.02800
C299        C  0.02319417  0.29910886  0.29672419     0.07130
C300        C  0.00618766  0.25263086  0.30586185    -0.02990
Br301      Br  0.04695548  0.22684709  0.30261340    -0.01540
Br302      Br  0.93856109  0.16197675  0.32972755    -0.01610
Br303      Br  0.00824913  0.37757973  0.28442988    -0.01570
Br304      Br  0.92399260  0.33008752  0.33160499    -0.01560
C305        C  0.64146442  0.23454615  0.36484888    -0.02680
C306        C  0.64402902  0.19329761  0.36752672     0.07000
C307        C  0.61854480  0.16185353  0.39060911    -0.02790
C308        C  0.59007392  0.17075667  0.40924389    -0.02800
C309        C  0.57993619  0.20611783  0.40264863     0.07130
C310        C  0.61018745  0.24135524  0.38285030    -0.02990
Br311      Br  0.61484122  0.30160423  0.38417521    -0.01540
Br312      Br  0.67861606  0.28063757  0.33562547    -0.01610
Br313      Br  0.57104930  0.13971056  0.44666742    -0.01570
Br314      Br  0.62236802  0.10659738  0.39839745    -0.01560
C315        C  0.34784914  0.02395121  0.49637344    -0.02680
C316        C  0.39117886  0.03695919  0.48251239     0.07000
C317        C  0.42160709  0.02322138  0.49506462    -0.02790
C318        C  0.40955846  0.99884796  0.02212831    -0.02800
C319        C  0.36458839  0.98340424  0.03454846     0.07130
C320        C  0.33236594  0.99243559  0.01923555    -0.02990
Br321      Br  0.26405522  0.95345846  0.02170279    -0.01540
Br322      Br  0.30825430  0.04960936  0.48577585    -0.01610
Br323      Br  0.45155411  0.98150241  0.04020933    -0.01570
Br324      Br  0.47888319  0.03723760  0.47541867    -0.01560
C325        C  0.46118685  0.19533993  0.06457935    -0.02680
C326        C  0.46271439  0.23472990  0.07704181     0.07000
C327        C  0.47045640  0.27225232  0.05869974    -0.02790
C328        C  0.46789930  0.26666439  0.02789233    -0.02800
C329        C  0.46108853  0.22488828  0.01543019     0.07130
C330        C  0.46301218  0.19172681  0.03390443    -0.02990
Br331      Br  0.47209703  0.14358431  0.01783410    -0.01540
Br332      Br  0.45373492  0.14515962  0.08960705    -0.01610
Br333      Br  0.47232467  0.31529154  0.50271076    -0.01570
Br334      Br  0.48502838  0.33118438  0.07561967    -0.01560
C335        C  0.47908799  0.24086572  0.27993860    -0.02680
C336        C  0.43478136  0.22532288  0.26669869     0.07000
C337        C  0.39301701  0.19946002  0.28306886    -0.02790
C338        C  0.39592607  0.19117603  0.31308569    -0.02800
C339        C  0.44053630  0.20595894  0.32600799     0.07130
C340        C  0.48183438  0.22945069  0.30910770    -0.02990
Br341      Br  0.54231281  0.24620558  0.32566376    -0.01540
Br342      Br  0.53628219  0.27949436  0.25857611    -0.01610
Br343      Br  0.33912626  0.15924662  0.33640222    -0.01570
Br344      Br  0.33232319  0.17476887  0.26421433    -0.01560
C345        C  0.86380660  0.41325127  0.05205150    -0.02680
C346        C  0.82119275  0.37314005  0.06161633     0.07000
C347        C  0.77762305  0.37112743  0.05596160    -0.02790
C348        C  0.77666373  0.40731944  0.03999387    -0.02800
C349        C  0.81947851  0.44808169  0.03173631     0.07130
C350        C  0.86307644  0.45153339  0.03961142    -0.02990
Br351      Br  0.92345991  0.50990846  0.03629310    -0.01540
Br352      Br  0.92457769  0.41637884  0.05269770    -0.01610
Br353      Br  0.71617707  0.39964655  0.02891450    -0.01570
Br354      Br  0.71885630  0.31980985  0.07071722    -0.01560
C355        C  0.02637504  0.41131870  0.18505045    -0.02680
C356        C  0.03668858  0.37979396  0.19941075     0.07000
C357        C  0.01800053  0.33429249  0.18780617    -0.02790
C358        C  0.00321852  0.32593342  0.15896993    -0.02800
C359        C  0.98771112  0.35380862  0.14563652     0.07130
C360        C  0.99834908  0.39657775  0.15900093    -0.02990
Br361      Br  0.97512161  0.43398862  0.14188557    -0.01540
Br362      Br  0.04982000  0.47300599  0.20083956    -0.01610
Br363      Br  0.00428331  0.27583741  0.13779502    -0.01570
Br364      Br  0.01627390  0.28384835  0.21011192    -0.01560
C365        C  0.82338074  0.26154634  0.19821282    -0.02680
C366        C  0.79570816  0.22307556  0.17941398     0.07000
C367        C  0.75942061  0.18101969  0.19143697    -0.02790
C368        C  0.75221081  0.17687971  0.22204115    -0.02800
C369        C  0.78373171  0.21314314  0.24118520     0.07130
C370        C  0.81806455  0.25631240  0.22903363    -0.02990
Br371      Br  0.85856234  0.30772876  0.25469031    -0.01540
Br372      Br  0.86973125  0.32084275  0.18178220    -0.01610
Br373      Br  0.69708855  0.12279106  0.23727346    -0.01570
Br374      Br  0.72079167  0.12839249  0.16591866    -0.01560
C375        C  0.81880364  0.20872421  0.44499879    -0.02680
C376        C  0.78476751  0.21623209  0.43120904     0.07000
C377        C  0.76237391  0.23598768  0.44700195    -0.02790
C378        C  0.77305482  0.24706293  0.47684905    -0.02800
C379        C  0.80644286  0.23881239  0.49073739     0.07130
C380        C  0.82959580  0.21995370  0.47482923    -0.02990
Br381      Br  0.87540802  0.20873509  0.49403651    -0.01540
Br382      Br  0.84969431  0.18200951  0.42310616    -0.01610
Br383      Br  0.74184951  0.27321333  0.99884090    -0.01570
Br384      Br  0.71851784  0.24954272  0.42761616    -0.01560
C385        C  0.37640248  0.32726492  0.08207485    -0.02680
C386        C  0.39797447  0.35511315  0.10758185     0.07000
C387        C  0.41467791  0.40362973  0.10643521    -0.02790
C388        C  0.40735198  0.42263969  0.08048214    -0.02800
C389        C  0.38652196  0.39396539  0.05563257     0.07130
C390        C  0.37787293  0.34843372  0.05562361    -0.02990
Br391      Br  0.36136474  0.31329309  0.01951956    -0.01540
Br392      Br  0.33717185  0.25939589  0.08310987    -0.01610
Br393      Br  0.42857137  0.48801165  0.07742955    -0.01570
Br394      Br  0.44423836  0.44307880  0.14011552    -0.01560
C395        C  0.19024423  0.42970708  0.13973436    -0.02680
C396        C  0.22870989  0.45147053  0.15952023     0.07000
C397        C  0.27468942  0.47979616  0.14764844    -0.02790
C398        C  0.28198848  0.47805092  0.11703468    -0.02800
C399        C  0.24361385  0.44814310  0.09846331     0.07130
C400        C  0.19748563  0.42617724  0.10983857    -0.02990
Br401      Br  0.14323859  0.39118044  0.08456965    -0.01540
Br402      Br  0.12749139  0.41034692  0.15238272    -0.01610
Br403      Br  0.34417101  0.51547340  0.10072686    -0.01570
Br404      Br  0.32735585  0.52116657  0.17264013    -0.01560
C405        C  0.21189816  0.39460101  0.39367488    -0.02680
C406        C  0.23836348  0.43652780  0.40959067     0.07000
C407        C  0.25553423  0.48004767  0.39571655    -0.02790
C408        C  0.24916834  0.48179129  0.36541318    -0.02800
C409        C  0.22446668  0.43995215  0.34919284     0.07130
C410        C  0.20459293  0.39629443  0.36339147    -0.02990
Br411      Br  0.16632321  0.33914638  0.34151826    -0.01540
Br412      Br  0.18477119  0.33530598  0.41370446    -0.01610
Br413      Br  0.27471726  0.54146369  0.34603355    -0.01570
Br414      Br  0.28652616  0.53720358  0.41831582    -0.01560
C415        C  0.07374375  0.28103976  0.02864378    -0.02680
C416        C  0.10174024  0.32895153  0.02007067     0.07000
C417        C  0.07929240  0.35585685  0.01964390    -0.02790
C418        C  0.03511930  0.33926365  0.03321694    -0.02800
C419        C  0.00764879  0.29216309  0.04280859     0.07130
C420        C  0.02665129  0.26270816  0.03921511    -0.02990
Br421      Br  0.98759356  0.19694854  0.04799474    -0.01540
Br422      Br  0.09788211  0.23900184  0.52540994    -0.01610
Br423      Br  0.01643642  0.38473207  0.04169051    -0.01570
Br424      Br  0.10701397  0.41548905  0.99939204    -0.01560
C425        C  0.27248507  0.24021244  0.47474946    -0.02680
C426        C  0.27959691  0.28025685  0.45911723     0.07000
C427        C  0.30038040  0.28800711  0.43074864    -0.02790
C428        C  0.32255383  0.26324772  0.42136917    -0.02800
C429        C  0.32219032  0.22867871  0.43931817     0.07130
C430        C  0.29458758  0.21532396  0.46520903    -0.02990
Br431      Br  0.29081984  0.16587476  0.48954228    -0.01540
Br432      Br  0.23456470  0.21965746  0.00997476    -0.01610
Br433      Br  0.35364728  0.27651222  0.38377431    -0.01570
Br434      Br  0.29739452  0.33134266  0.40377226    -0.01560
C435        C  0.42813466  0.65398164  0.46432555    -0.02680
C436        C  0.44669413  0.65048035  0.43690480     0.07000
C437        C  0.42812423  0.60582398  0.42410612    -0.02790
C438        C  0.39925913  0.56530835  0.44041337    -0.02800
C439        C  0.38163125  0.56836535  0.46813107     0.07130
C440        C  0.39481071  0.61292581  0.47947201    -0.02990
Br441      Br  0.37132882  0.61741329  0.01734306    -0.01540
Br442      Br  0.44914164  0.71404752  0.98231073    -0.01610
Br443      Br  0.38704722  0.50624921  0.42450304    -0.01570
Br444      Br  0.44203286  0.59996613  0.38367270    -0.01560
C445        C  0.70848284  0.96226254  0.42459246    -0.02680
C446        C  0.71142068  0.92795169  0.40827030     0.07000
C447        C  0.74063707  0.94214577  0.38315193    -0.02790
C448        C  0.75991840  0.98807445  0.37176244    -0.02800
C449        C  0.75077376  0.02091434  0.38575498     0.07130
C450        C  0.72961525  0.00880134  0.41417472    -0.02990
Br451      Br  0.73118529  0.05558543  0.44030668    -0.01540
Br452      Br  0.67583855  0.94508507  0.46166614    -0.01610
Br453      Br  0.79921625  0.00467833  0.33731990    -0.01570
Br454      Br  0.75285730  0.89801944  0.36345689    -0.01560
C455        C  0.69045949  0.67115139  0.47560012    -0.02680
C456        C  0.71379837  0.71878545  0.46680431     0.07000
C457        C  0.76298016  0.74710505  0.47183836    -0.02790
C458        C  0.78926723  0.72729529  0.48305795    -0.02800
C459        C  0.76612161  0.67862132  0.48996773     0.07130
C460        C  0.71590793  0.65234757  0.48878644    -0.02990
Br461      Br  0.68007085  0.59094423  0.50667520    -0.01540
Br462      Br  0.62386413  0.62841497  0.46690570    -0.01610
Br463      Br  0.85669028  0.76870516  0.98929004    -0.01570
Br464      Br  0.79419051  0.81339779  0.46392833    -0.01560
C465        C  0.38375878  0.82135210  0.15260264    -0.02680
C466        C  0.37003136  0.80833218  0.12294056     0.07000
C467        C  0.39029417  0.78640209  0.10724724    -0.02790
C468        C  0.42644244  0.78085895  0.12028873    -0.02800
C469        C  0.44312170  0.79801153  0.14908134     0.07130
C470        C  0.41907441  0.81505150  0.16566917    -0.02990
Br471      Br  0.43459314  0.82927647  0.20677433    -0.01540
Br472      Br  0.35674174  0.85029448  0.17574736    -0.01610
Br473      Br  0.45359876  0.75135659  0.09781854    -0.01570
Br474      Br  0.37157741  0.76816954  0.06692774    -0.01560
C475        C  0.61885139  0.00162045  0.27281770    -0.02680
C476        C  0.66747003  0.02522083  0.28048482     0.07000
C477        C  0.69995840  0.02309877  0.26101755    -0.02790
C478        C  0.68611099  0.00706567  0.23259981    -0.02800
C479        C  0.63782009  0.97915535  0.22586269     0.07130
C480        C  0.60377110  0.97590158  0.24610974    -0.02990
Br481      Br  0.53752864  0.93646151  0.23720626    -0.01540
Br482      Br  0.57362790  0.00398199  0.29839774    -0.01610
Br483      Br  0.73378364  0.02029282  0.20321090    -0.01570
Br484      Br  0.76456138  0.04264806  0.27253339    -0.01560
C485        C  0.55029624  0.77701287  0.27820458    -0.02680
C486        C  0.59399478  0.79959226  0.26267428     0.07000
C487        C  0.63654462  0.81425862  0.27892458    -0.02790
C488        C  0.63431706  0.79969038  0.30762270    -0.02800
C489        C  0.59340090  0.78626559  0.32441602     0.07130
C490        C  0.55030652  0.77251086  0.30924878    -0.02990
Br491      Br  0.49071889  0.74435364  0.32993708    -0.01540
Br492      Br  0.49039062  0.75507199  0.25826381    -0.01610
Br493      Br  0.68636562  0.79242691  0.32113974    -0.01570
Br494      Br  0.70020212  0.86028816  0.26609651    -0.01560
C495        C  0.56664311  0.74418119  0.03479699    -0.02680
C496        C  0.56953099  0.77640631  0.01312803     0.07000
C497        C  0.57024110  0.81751106  0.02223649    -0.02790
C498        C  0.57621230  0.82993951  0.05194541    -0.02800
C499        C  0.57077031  0.79685820  0.07354728     0.07130
C500        C  0.56277287  0.75262008  0.06453864    -0.02990
Br501      Br  0.54313312  0.70135789  0.09197290    -0.01540
Br502      Br  0.56995925  0.68878632  0.02560950    -0.01610
Br503      Br  0.59554735  0.89423433  0.06139260    -0.01570
Br504      Br  0.55896229  0.85606740  0.49526474    -0.01560
C505        C  0.76978614  0.01848803  0.11815424    -0.02680
C506        C  0.71978042  0.99672651  0.11955601     0.07000
C507        C  0.69822994  0.02072119  0.10713078    -0.02790
C508        C  0.72562295  0.06374389  0.09276273    -0.02800
C509        C  0.77559976  0.08869059  0.09523871     0.07130
C510        C  0.79767451  0.06475028  0.10700294    -0.02990
Br511      Br  0.86591376  0.09438803  0.10868564    -0.01540
Br512      Br  0.80054643  0.98534611  0.13150599    -0.01610
Br513      Br  0.69337108  0.08722056  0.06867174    -0.01570
Br514      Br  0.63182010  0.00012448  0.11310765    -0.01560
C515        C  0.61706706  0.45763247  0.19937728    -0.02680
C516        C  0.64780168  0.45274193  0.21919839     0.07000
C517        C  0.64505910  0.40879938  0.22047628    -0.02790
C518        C  0.60842588  0.36953910  0.20514797    -0.02800
C519        C  0.57274982  0.37341568  0.19005886     0.07130
C520        C  0.58161656  0.41876742  0.18397201    -0.02990
Br521      Br  0.54781166  0.42826767  0.15226074    -0.01540
Br522      Br  0.62197817  0.51715550  0.19234665    -0.01610
Br523      Br  0.61188212  0.31362018  0.20096404    -0.01570
Br524      Br  0.68916177  0.40118220  0.24449039    -0.01560
C525        C  0.83265521  0.57587838  0.15024554    -0.02680
C526        C  0.79224897  0.57890535  0.15794146     0.07000
C527        C  0.76231437  0.57800239  0.13507227    -0.02790
C528        C  0.76901108  0.56844536  0.10616973    -0.02800
C529        C  0.81207242  0.57143353  0.09784931     0.07130
C530        C  0.84357656  0.57422362  0.12040523    -0.02990
Br531      Br  0.90112005  0.57355316  0.11178763    -0.01540
Br532      Br  0.87409721  0.57329220  0.17975369    -0.01610
Br533      Br  0.71469907  0.54469122  0.07983969    -0.01570
Br534      Br  0.71435247  0.59480070  0.14112973    -0.01560
C535        C  0.80528955  0.54264265  0.36071476    -0.02680
C536        C  0.77391772  0.55529942  0.34829527     0.07000
C537        C  0.74163563  0.55884562  0.36700598    -0.02790
C538        C  0.74835736  0.56150420  0.39760540    -0.02800
C539        C  0.78408452  0.55533017  0.40985609     0.07130
C540        C  0.80842333  0.54022351  0.39163198    -0.02990
Br541      Br  0.84655885  0.51758745  0.40917564    -0.01540
Br542      Br  0.84563112  0.53149242  0.33566493    -0.01610
Br543      Br  0.70888470  0.57374392  0.42292035    -0.01570
Br544      Br  0.68548088  0.55504595  0.35129320    -0.01560
C545        C  0.61547608  0.62491946  0.30984753    -0.02680
C546        C  0.66278780  0.63513671  0.30895986     0.07000
C547        C  0.69342280  0.65953835  0.33296075    -0.02790
C548        C  0.67502630  0.66428978  0.35923247    -0.02800
C549        C  0.62925632  0.65724002  0.35976856     0.07130
C550        C  0.59987018  0.63913308  0.33460687    -0.02990
Br551      Br  0.54015018  0.63681766  0.33350784    -0.01540
Br552      Br  0.57321160  0.59385568  0.27731134    -0.01610
Br553      Br  0.71483166  0.68549410  0.39391501    -0.01570
Br554      Br  0.76191472  0.69241930  0.32968984    -0.01560
C555        C  0.69017876  0.69915224  0.19507581    -0.02680
C556        C  0.73219047  0.72054614  0.21245772     0.07000
C557        C  0.75836512  0.76999672  0.21415308    -0.02790
C558        C  0.74166815  0.79710787  0.19977878    -0.02800
C559        C  0.69936961  0.77503103  0.18252753     0.07130
C560        C  0.67613733  0.72603274  0.17880676    -0.02990
Br561      Br  0.62460154  0.69468383  0.15069856    -0.01540
Br562      Br  0.64666738  0.63240476  0.19598134    -0.01610
Br563      Br  0.77675284  0.86421181  0.20451228    -0.01570
Br564      Br  0.81692611  0.80050497  0.23612505    -0.01560
C565        C  0.19185736  0.60148035  0.32370677    -0.02680
C566        C  0.22399496  0.64733101  0.31424990     0.07000
C567        C  0.25969907  0.65425235  0.29403320    -0.02790
C568        C  0.25775855  0.61511684  0.28004495    -0.02800
C569        C  0.21959615  0.56948295  0.28565908     0.07130
C570        C  0.18682278  0.56301379  0.30795412    -0.02990
Br571      Br  0.13192005  0.50254428  0.31630210    -0.01540
Br572      Br  0.15362050  0.59141756  0.35826544    -0.01610
Br573      Br  0.30411487  0.62426467  0.25089683    -0.01570
Br574      Br  0.31051131  0.71656207  0.28487285    -0.01560
C575        C  0.99195007  0.62480328  0.38158838    -0.02680
C576        C  0.03580850  0.62984063  0.38857334     0.07000
C577        C  0.04441244  0.61993646  0.41698762    -0.02790
C578        C  0.01322673  0.61377611  0.43982178    -0.02800
C579        C  0.97289060  0.61755564  0.43374443     0.07130
C580        C  0.96248152  0.62319544  0.40414761    -0.02990
Br581      Br  0.91349891  0.63660932  0.39325822    -0.01540
Br582      Br  0.97606438  0.62716329  0.34095842    -0.01610
Br583      Br  0.03165905  0.60891283  0.47948497    -0.01570
Br584      Br  0.09958592  0.61571313  0.42410317    -0.01560
C585        C  0.25351810  0.97921634  0.39504932    -0.02680
C586        C  0.29349321  0.01374229  0.37946867     0.07000
C587        C  0.30117183  0.00122032  0.35080734    -0.02790
C588        C  0.27599704  0.95402856  0.34104737    -0.02800
C589        C  0.24123748  0.91866736  0.35886169     0.07130
C590        C  0.22876749  0.93196721  0.38539902    -0.02990
Br591      Br  0.18057255  0.88495641  0.41054798    -0.01540
Br592      Br  0.22905498  0.99582303  0.42834507    -0.01610
Br593      Br  0.28850465  0.93772495  0.30275185    -0.01570
Br594      Br  0.34339452  0.04809749  0.32308853    -0.01560
C595        C  0.00808455  0.72691696  0.27089617    -0.02680
C596        C  0.01877157  0.73724491  0.30121649     0.07000
C597        C  0.98289430  0.73466370  0.31978197    -0.02790
C598        C  0.93598634  0.71532955  0.30912837    -0.02800
C599        C  0.92436349  0.69868261  0.27994729     0.07130
C600        C  0.96098798  0.70700843  0.26051199    -0.02990
Br601      Br  0.94625268  0.69123299  0.21957905    -0.01540
Br602      Br  0.05789096  0.74070911  0.24312445    -0.01610
Br603      Br  0.88692688  0.70870382  0.33539907    -0.01570
Br604      Br  0.99580155  0.75408652  0.36046785    -0.01560
C605        C  0.27272380  0.83067310  0.43914958    -0.02680
C606        C  0.24608869  0.78535810  0.42778583     0.07000
C607        C  0.23354548  0.74705769  0.44639241    -0.02790
C608        C  0.23664692  0.75339979  0.47724032    -0.02800
C609        C  0.25718581  0.79908673  0.48908570     0.07130
C610        C  0.28002935  0.83737207  0.46950637    -0.02990
Br611      Br  0.32481868  0.89876912  0.48298928    -0.01540
Br612      Br  0.29943489  0.88352186  0.41276504    -0.01610
Br613      Br  0.21034777  0.69971232  0.00260069    -0.01570
Br614      Br  0.21755617  0.68810549  0.42916932    -0.01560
C615        C  0.20033351  0.81237526  0.22550097    -0.02680
C616        C  0.20743121  0.77781251  0.23817376     0.07000
C617        C  0.21503067  0.74760945  0.22018837    -0.02790
C618        C  0.22150745  0.75579899  0.19001825    -0.02800
C619        C  0.21659874  0.79170520  0.17764226     0.07130
C620        C  0.20324661  0.81809032  0.19495250    -0.02990
Br621      Br  0.18586314  0.85930526  0.17631763    -0.01540
Br622      Br  0.18440731  0.85003700  0.24969564    -0.01610
Br623      Br  0.23866110  0.71903857  0.16574150    -0.01570
Br624      Br  0.21560159  0.69432919  0.23641971    -0.01560
Fe625      Fe  0.12523709  0.69601824  0.81238561     1.65780
Fe626      Fe  0.13678774  0.77276066  0.86541080     1.73250
Fe627      Fe  0.23536764  0.78531373  0.83241983     1.54420
O628        O  0.24014806  0.72654853  0.82113458    -0.82510
O629        O  0.17455658  0.84177138  0.85261460    -0.80810
O630        O  0.16603410  0.66754510  0.81985916    -0.85010
O631        O  0.16271109  0.72915704  0.77580226    -0.79870
O632        O  0.24470637  0.77431271  0.87608485    -0.81640
O633        O  0.08185812  0.76387225  0.83736486    -0.84390
C634        C  0.19930371  0.76782182  0.76943627     0.96380
C635        C  0.21005990  0.68305993  0.81922351     1.03820
O636        O  0.16563425  0.75139131  0.83664729    -1.13370
O637        O  0.09555791  0.70678233  0.88205852    -0.75800
O638        O  0.08275979  0.65592984  0.84612875    -0.79290
O639        O  0.22840738  0.79667956  0.78838220    -0.79980
C640        C  0.07533660  0.66560642  0.87164598     0.95280
O641        O  0.07784396  0.71658102  0.80165514    -0.77940
O642        O  0.18780744  0.78316576  0.89674836    -0.83130
C643        C  0.21906610  0.86784797  0.85077197     0.97900
C644        C  0.22455596  0.77933906  0.89842989     1.03820
O645        O  0.24531549  0.85124873  0.84404084    -0.78770
C646        C  0.06285931  0.74072900  0.81391578     1.02120
Fe647      Fe  0.70702997  0.58956849  0.72868125     1.65780
Fe648      Fe  0.77881885  0.65159511  0.78217115     1.73250
Fe649      Fe  0.79024444  0.56749077  0.75243006     1.54410
O650        O  0.72805402  0.50644862  0.73621557    -0.82510
O651        O  0.84845665  0.68861956  0.76959195    -0.80810
O652        O  0.67244667  0.52320742  0.74564295    -0.85010
O653        O  0.73660943  0.56952542  0.69497812    -0.79870
O654        O  0.77016674  0.54518780  0.79563424    -0.81640
O655        O  0.76027785  0.69305696  0.75397020    -0.84390
C656        C  0.77900888  0.57988463  0.68928483     0.96380
C657        C  0.68435337  0.49503778  0.73582379     1.03820
O658        O  0.76138846  0.60506967  0.75303137    -1.13370
O659        O  0.71251951  0.60872881  0.79565068    -0.75800
O660        O  0.67212130  0.61142799  0.75931771    -0.79290
O661        O  0.80900351  0.58904210  0.70978813    -0.79980
C662        C  0.68148793  0.61633969  0.78661392     0.95280
O663        O  0.74199899  0.65513854  0.71152178    -0.77940
O664        O  0.79486615  0.61610000  0.81394882    -0.83130
C665        C  0.87373605  0.66958525  0.77088134     0.97900
C666        C  0.77963188  0.57261513  0.81749334     1.03820
O667        O  0.85602567  0.62525810  0.76722020    -0.78770
C668        C  0.74766289  0.68941377  0.72674610     1.02120
Fe669      Fe  0.58477362  0.88700425  0.64707062     1.65780
Fe670      Fe  0.66833522  0.88186302  0.68712407     1.73250
Fe671      Fe  0.57005986  0.78457810  0.66799728     1.54410
O672        O  0.50474806  0.77966065  0.65734154    -0.82510
O673        O  0.69303095  0.84219162  0.66706399    -0.80810
O674        O  0.52017408  0.85078802  0.66693384    -0.85010
O675        O  0.56250990  0.83934794  0.61250539    -0.79870
O676        O  0.56120546  0.78804607  0.71299021    -0.81640
O677        O  0.70300786  0.93796167  0.65708978    -0.84390
C678        C  0.57251454  0.80828805  0.60511379     0.96380
C679        C  0.49120407  0.80922278  0.65912026     1.03820
O680        O  0.60838816  0.85190583  0.66693055    -1.13370
O681        O  0.64723248  0.91909591  0.71061355    -0.75800
O682        O  0.60563383  0.93764571  0.68037842    -0.79290
O683        O  0.58273304  0.78637790  0.62395560    -0.79980
C684        C  0.62753963  0.94223646  0.70445091     0.95280
O685        O  0.64703818  0.92569573  0.62489450    -0.77940
O686        O  0.63874924  0.83272503  0.71997368    -0.83130
C687        C  0.67253024  0.79915570  0.67412727     0.97900
C688        C  0.59724273  0.80749441  0.73017199     1.03820
O689        O  0.62765322  0.77580115  0.67728015    -0.78770
C690        C  0.68891011  0.95039348  0.63448829     1.02120
Fe691      Fe  0.58386146  0.70146669  0.93881763     1.65780
Fe692      Fe  0.66903305  0.78793364  0.89919952     1.73250
Fe693      Fe  0.57416711  0.79210065  0.91910778     1.54420
O694        O  0.50735257  0.73202694  0.92878460    -0.82800
O695        O  0.69702235  0.85134678  0.92092042    -0.80810
O696        O  0.52206355  0.67728534  0.91654018    -0.85010
O697        O  0.56158843  0.72684264  0.97320436    -0.79870
O698        O  0.56417831  0.77819322  0.87433444    -0.81640
O699        O  0.70041589  0.76222769  0.92895618    -0.84390
C700        C  0.57283115  0.76797144  0.98146087     0.96380
C701        C  0.49334040  0.68882755  0.92570214     1.03820
O702        O  0.61025283  0.76095269  0.91996869    -1.13370
O703        O  0.64396842  0.72927233  0.87456349    -0.75800
O704        O  0.60351364  0.67079493  0.90582603    -0.79290
O705        O  0.58615704  0.80151880  0.96328341    -0.79980
C706        C  0.62292475  0.68647808  0.88105701     0.95280
O707        O  0.64468202  0.72287721  0.96223949    -0.77940
O708        O  0.64129545  0.81187687  0.86721931    -0.83130
C709        C  0.67960727  0.87698324  0.91497001     0.97900
C710        C  0.59913805  0.79106424  0.85703729     1.03820
O711        O  0.63485578  0.85893055  0.91132455    -0.78770
C712        C  0.68558738  0.73704061  0.95215228     1.02120
Fe713      Fe  0.32747300  0.42703058  0.97867333     1.65780
Fe714      Fe  0.24516860  0.35628405  0.52812769     1.73250
Fe715      Fe  0.24583755  0.45180073  0.00393929     1.54410
O716        O  0.30609054  0.51311726  0.98878257    -0.82510
O717        O  0.17649993  0.33123290  0.51261779    -0.80810
O718        O  0.36277601  0.49642212  0.98969134    -0.85010
O719        O  0.29104688  0.43539550  0.94381978    -0.79870
O720        O  0.26469201  0.46784947  0.54789585    -0.81640
O721        O  0.25237691  0.31245357  0.49752764    -0.84390
C722        C  0.25239943  0.43534208  0.93990430     0.96380
C723        C  0.34869327  0.52432525  0.98396209     1.03820
O724        O  0.27304335  0.41133570  0.50328665    -1.13370
O725        O  0.31044897  0.37709444  0.54576793    -0.75800
O726        O  0.36577710  0.41884102  0.51212137    -0.79290
O727        O  0.22667209  0.43578787  0.96063620    -0.79980
C728        C  0.35316675  0.39930189  0.53706751     0.95280
O729        O  0.30267370  0.36005488  0.96429431    -0.77940
O730        O  0.23633145  0.39371010  0.56231189    -0.83130
C731        C  0.15502305  0.35365621  0.51553710     0.97900
C732        C  0.25000896  0.43662761  0.56788471     1.03820
O733        O  0.17880124  0.39814041  0.51696189    -0.78770
C734        C  0.27644683  0.31925011  0.97420917     1.02120
Fe735      Fe  0.89741843  0.31527856  0.56554305     1.65780
Fe736      Fe  0.88543433  0.22792594  0.60771549     1.73250
Fe737      Fe  0.79021320  0.22898387  0.58433203     1.54410
O738        O  0.79044619  0.29094379  0.57260429    -0.82510
O739        O  0.84638796  0.16427395  0.58624126    -0.80810
O740        O  0.86143799  0.34126079  0.58733097    -0.85010
O741        O  0.85075513  0.29025743  0.52934757    -0.79870
O742        O  0.79180392  0.24196035  0.62908275    -0.81640
O743        O  0.94501710  0.25058106  0.57906616    -0.84390
C744        C  0.81692089  0.24937661  0.52198265     0.96380
C745        C  0.82338002  0.33330719  0.57564659     1.03820
O746        O  0.85829293  0.25644665  0.58470179    -1.13370
O747        O  0.92031488  0.28706915  0.63134806    -0.75800
O748        O  0.94905166  0.34478988  0.59889601    -0.79290
O749        O  0.79168446  0.21745469  0.54039966    -0.79980
C750        C  0.94980050  0.32848719  0.62397193     0.95280
O751        O  0.93550265  0.29157899  0.54402422    -0.77940
O752        O  0.83335988  0.20754589  0.64042052    -0.83130
C753        C  0.80187918  0.14091769  0.59050802     0.97900
C754        C  0.80787724  0.22491577  0.64789119     1.03820
O755        O  0.77878928  0.16208648  0.59370475    -0.78770
C756        C  0.95946258  0.27576115  0.55577069     1.02120
Fe757      Fe  0.43525902  0.12038669  0.89993391     1.65780
Fe758      Fe  0.36671249  0.13211122  0.94795920     1.73250
Fe759      Fe  0.45629699  0.22712163  0.91951547     1.54420
O760        O  0.51968972  0.22837775  0.90745191    -0.82510
O761        O  0.33294653  0.16398207  0.93022407    -0.80810
O762        O  0.50125183  0.15647760  0.91813971    -0.85010
O763        O  0.45391256  0.16559893  0.86390404    -0.79870
O764        O  0.47487971  0.23042153  0.96354024    -0.81640
O765        O  0.32603215  0.07184862  0.91983964    -0.84390
C766        C  0.44407443  0.19715191  0.85714456     0.96380
C767        C  0.53183931  0.19773706  0.91082604     1.03820
O768        O  0.41757860  0.15983216  0.92096629    -1.13370
O769        O  0.40418724  0.10777440  0.96788162    -0.75800
O770        O  0.41499910  0.06871963  0.93323836    -0.79290
O771        O  0.43809174  0.22196577  0.87605117    -0.79980
C772        C  0.40623463  0.07310410  0.95984270     0.95280
O773        O  0.37022762  0.08202330  0.88100568    -0.77940
O774        O  0.40099978  0.18534816  0.97946497    -0.83130
C775        C  0.35237273  0.20819637  0.93218335     0.97900
C776        C  0.44521452  0.21278954  0.98439548     1.03820
O777        O  0.39764358  0.23521861  0.93072246    -0.78770
C778        C  0.33110456  0.05908622  0.89408317     1.02120
Fe779      Fe  0.70396701  0.11578129  0.86075916     1.65780
Fe780      Fe  0.79022565  0.13194361  0.81456091     1.73250
Fe781      Fe  0.78549797  0.22337715  0.83687108     1.54420
O782        O  0.72235205  0.22025683  0.84964199    -0.82510
O783        O  0.85698106  0.17306709  0.83255885    -0.80810
O784        O  0.66884045  0.14630152  0.84246281    -0.85010
O785        O  0.73160485  0.16484320  0.89537747    -0.79870
O786        O  0.76856002  0.21901901  0.79231189    -0.81640
O787        O  0.77559216  0.07671976  0.84471020    -0.84390
C788        C  0.77173724  0.20187683  0.90056199     0.96380
C789        C  0.67957287  0.18680342  0.85093422     1.03820
O790        O  0.76096519  0.15689658  0.83872699    -1.13370
O791        O  0.72751366  0.09701148  0.79457026    -0.75800
O792        O  0.67361427  0.06138491  0.82865264    -0.79290
O793        O  0.80117519  0.22646196  0.88063938    -0.79980
C794        C  0.68951456  0.06253821  0.80299418     0.95280
O795        O  0.73374560  0.08206252  0.88078496    -0.77940
O796        O  0.80488530  0.18002882  0.78032404    -0.83130
C797        C  0.87794046  0.21690756  0.82833940     0.97900
C798        C  0.78524258  0.20340898  0.77305579     1.03820
O799        O  0.85361665  0.23696438  0.82611404    -0.78770
C800        C  0.75514911  0.06313304  0.86969850     1.02120
Fe801      Fe  0.31137039  0.89311384  0.61400275     1.65780
Fe802      Fe  0.24508590  0.88284353  0.55684181     1.73250
Fe803      Fe  0.23345260  0.78670080  0.58457125     1.54410
O804        O  0.29374739  0.78786530  0.60282401    -0.82510
O805        O  0.17471248  0.84857087  0.56768796    -0.80810
O806        O  0.35073987  0.86293411  0.60401384    -0.85010
O807        O  0.27440802  0.84405448  0.64601940    -0.79870
O808        O  0.25889372  0.78974424  0.54191203    -0.81640
O809        O  0.26007811  0.94168447  0.58473934    -0.84390
C810        C  0.23370123  0.80714937  0.64811014     0.96380
C811        C  0.33644281  0.82007744  0.60850563     1.03820
O812        O  0.26114763  0.85344273  0.58652911    -1.13370
O813        O  0.31250872  0.90731368  0.54538387    -0.75800
O814        O  0.35070956  0.94894678  0.58349293    -0.79290
O815        O  0.20897247  0.78284250  0.62631395    -0.79980
C816        C  0.34396322  0.94492405  0.55580151     0.95280
O817        O  0.27545866  0.92417949  0.62785432    -0.77940
O818        O  0.23134689  0.83335365  0.52431509    -0.83130
C819        C  0.15011852  0.80410417  0.56547428     0.97900
C820        C  0.24930168  0.80778247  0.52022345     1.03820
O821        O  0.16851341  0.77808563  0.56812877    -0.78770
C822        C  0.26905881  0.95129225  0.61205028     1.02120
Fe823      Fe  0.13564243  0.43518329  0.77582271     1.65780
Fe824      Fe  0.14433762  0.35853086  0.73230290     1.73250
Fe825      Fe  0.24223888  0.45466409  0.75552812     1.54420
O826        O  0.24456873  0.51607764  0.77058880    -0.82510
O827        O  0.18700621  0.33559286  0.74956905    -0.80810
O828        O  0.17371499  0.50036314  0.75815617    -0.85010
O829        O  0.18140937  0.44964981  0.81172355    -0.79870
O830        O  0.23996606  0.47025334  0.71149875    -0.81640
O831        O  0.08895151  0.31867607  0.76304727    -0.84390
C832        C  0.21491660  0.44201130  0.81804867     0.96380
C833        C  0.21340121  0.52786448  0.76942004     1.03820
O834        O  0.17319104  0.41501887  0.75507265    -1.13370
O835        O  0.10160288  0.37599609  0.71283076    -0.75800
O836        O  0.08573404  0.41947832  0.74210476    -0.79290
O837        O  0.24035607  0.43702949  0.79888865    -0.79980
C838        C  0.07736908  0.39418459  0.71939832     0.95280
O839        O  0.09316933  0.37183287  0.79476682    -0.77940
O840        O  0.19203385  0.39530409  0.69767384    -0.83130
C841        C  0.23004039  0.35646946  0.74189872     0.97900
C842        C  0.21973633  0.43893845  0.69147682     1.03820
O843        O  0.25422576  0.40101467  0.74192056    -0.78770
C844        C  0.07195770  0.33070703  0.78445437     1.02120
Fe845      Fe  0.89727394  0.58181925  0.51821816     1.65780
Fe846      Fe  0.87971938  0.65577007  0.97722085     1.73250
Fe847      Fe  0.78830014  0.55877585  0.50481581     1.54410
O848        O  0.78895219  0.49914587  0.52029268    -0.82510
O849        O  0.83746997  0.67597337  0.99818559    -0.80810
O850        O  0.85572752  0.51577043  0.50162192    -0.85010
O851        O  0.85790088  0.56804344  0.55746478    -0.79870
O852        O  0.78430824  0.54062036  0.96111122    -0.81640
O853        O  0.93477504  0.69784157  0.50642020    -0.84390
C854        C  0.82345018  0.57320166  0.56587680     0.96380
C855        C  0.82020973  0.48829525  0.51627916     1.03820
O856        O  0.85634557  0.60022524  0.50058326    -1.13370
O857        O  0.92469689  0.64280819  0.95453403    -0.75800
O858        O  0.93692016  0.59367078  0.98071788    -0.79290
O859        O  0.79789014  0.57982428  0.54755807    -0.79980
C860        C  0.94319486  0.61789102  0.95783693     0.95280
O861        O  0.94508809  0.64787816  0.53393613    -0.77940
O862        O  0.82782342  0.61510074  0.94494820    -0.83130
C863        C  0.79317816  0.65358361  0.99462133     0.97900
C864        C  0.79997313  0.57083719  0.94044080     1.03820
O865        O  0.77159382  0.60926256  0.49236317    -0.78770
C866        C  0.95759710  0.68920346  0.52578330     1.02120
Fe867      Fe  0.42034408  0.30536134  0.69464802     1.65780
Fe868      Fe  0.36566436  0.23304661  0.63944408     1.73250
Fe869      Fe  0.45143637  0.22700021  0.67259391     1.54410
O870        O  0.51317120  0.29037635  0.68520756    -0.82510
O871        O  0.32820579  0.16599025  0.65426948    -0.80810
O872        O  0.49064148  0.34306754  0.68444679    -0.85010
O873        O  0.43410343  0.27602823  0.73100448    -0.79870
O874        O  0.47346642  0.24499290  0.62923745    -0.81640
O875        O  0.32081251  0.25169133  0.66221192    -0.84390
C876        C  0.43297937  0.23763066  0.73602581     0.96380
C877        C  0.52302371  0.33290067  0.68564948     1.03820
O878        O  0.41078991  0.25290515  0.67064705    -1.13370
O879        O  0.41039757  0.29772154  0.62496535    -0.75800
O880        O  0.40584810  0.34003652  0.65976417    -0.79290
O881        O  0.43290122  0.21080415  0.71596265    -0.79980
C882        C  0.40625128  0.33138896  0.63247285     0.95280
O883        O  0.35065045  0.27029416  0.70703617    -0.77940
O884        O  0.40133369  0.21356521  0.61073452    -0.83130
C885        C  0.34832933  0.14179238  0.65468528     0.97900
C886        C  0.44553739  0.23177153  0.60734923     1.03820
O887        O  0.39318825  0.16021542  0.65960670    -0.78770
C888        C  0.31826566  0.26244728  0.68885337     1.02120
C889        C  0.25827674  0.25958128  0.72502510    -0.02680
C890        C  0.28290525  0.27550739  0.69821282     0.07000
C891        C  0.28576557  0.31508977  0.68519834    -0.02790
C892        C  0.27490361  0.34427162  0.70141876    -0.02800
C893        C  0.25017002  0.32909521  0.72834826     0.07130
C894        C  0.24014341  0.28510807  0.73942411    -0.02990
Br895      Br  0.20542751  0.26154984  0.77551645    -0.01540
Br896      Br  0.24606148  0.20069871  0.74046042    -0.01610
Br897      Br  0.29924422  0.40646075  0.68670424    -0.01570
Br898      Br  0.30215608  0.32879936  0.64446559    -0.01560
C899        C  0.08771289  0.78320747  0.52696198    -0.02680
C900        C  0.09949523  0.78187464  0.55664611     0.07000
C901        C  0.06300142  0.75667646  0.57700429    -0.02790
C902        C  0.01529617  0.73043577  0.56740110    -0.02800
C903        C  0.00392726  0.72774761  0.53720158     0.07130
C904        C  0.04038431  0.75564597  0.51713850    -0.02990
Br905      Br  0.02731440  0.75248985  0.97544955    -0.01540
Br906      Br  0.13685013  0.82062801  0.49910644    -0.01610
Br907      Br  0.96533959  0.69862611  0.59562794    -0.01570
Br908      Br  0.07879040  0.75775939  0.61793634    -0.01560
C909        C  0.29660714  0.01006442  0.65496275    -0.02680
C910        C  0.27843262  0.99718244  0.62553917     0.07000
C911        C  0.27588643  0.03159132  0.60841794    -0.02790
C912        C  0.29789092  0.07856409  0.61820904    -0.02800
C913        C  0.31996484  0.09156417  0.64609814     0.07130
C914        C  0.31690721  0.05681881  0.66488946    -0.02990
Br915      Br  0.34022212  0.07404328  0.70474871    -0.01540
Br916      Br  0.29507296  0.96584021  0.68324600    -0.01610
Br917      Br  0.30051510  0.12576350  0.59211343    -0.01570
Br918      Br  0.24048037  0.01574277  0.57212885    -0.01560
C919        C  0.95972499  0.22543994  0.81784974    -0.02680
C920        C  0.93063929  0.24552540  0.82223602     0.07000
C921        C  0.95112417  0.29398276  0.81665067    -0.02790
C922        C  0.99394829  0.31854529  0.80141401    -0.02800
C923        C  0.02319998  0.29912313  0.79672562     0.07130
C924        C  0.00619320  0.25264585  0.80586492    -0.02990
Br925      Br  0.04695924  0.22685992  0.80261675    -0.01540
Br926      Br  0.93856500  0.16199261  0.82973061    -0.01610
Br927      Br  0.00825228  0.37759038  0.78442377    -0.01570
Br928      Br  0.92399833  0.33010540  0.83160220    -0.01560
C929        C  0.64147016  0.23456106  0.86484106    -0.02680
C930        C  0.64403561  0.19331343  0.86752321     0.07000
C931        C  0.61855760  0.16187707  0.89061000    -0.02790
C932        C  0.59009501  0.17078882  0.90924629    -0.02800
C933        C  0.57995192  0.20614432  0.90264641     0.07130
C934        C  0.61019635  0.24137496  0.88284256    -0.02990
Br935      Br  0.61484817  0.30162315  0.88416174    -0.01540
Br936      Br  0.67861577  0.28064347  0.83561186    -0.01610
Br937      Br  0.57109341  0.13976876  0.94667823    -0.01570
Br938      Br  0.62237724  0.10662022  0.89840199    -0.01560
C939        C  0.34789247  0.02394522  0.99638000    -0.02680
C940        C  0.39122661  0.03697422  0.98251883     0.07000
C941        C  0.42167034  0.02325445  0.99506942    -0.02790
C942        C  0.40948349  0.99881435  0.52212324    -0.02800
C943        C  0.36451757  0.98339238  0.53454293     0.07130
C944        C  0.33230970  0.99244399  0.51923059    -0.02990
Br945      Br  0.26399625  0.95349348  0.52170429    -0.01540
Br946      Br  0.30826981  0.04957182  0.98578060    -0.01610
Br947      Br  0.45145387  0.98143605  0.54020386    -0.01570
Br948      Br  0.47894887  0.03728958  0.97541966    -0.01560
C949        C  0.46117107  0.19532481  0.56458039    -0.02680
C950        C  0.46270521  0.23471793  0.57704282     0.07000
C951        C  0.47045055  0.27224123  0.55870058    -0.02790
C952        C  0.46789176  0.26665260  0.52789319    -0.02800
C953        C  0.46107516  0.22487421  0.51543104     0.07130
C954        C  0.46299378  0.19170996  0.53390542    -0.02990
Br955      Br  0.47206741  0.14355998  0.51783568    -0.01540
Br956      Br  0.45371367  0.14514275  0.58960853    -0.01610
Br957      Br  0.47232719  0.31530102  0.00270978    -0.01570
Br958      Br  0.48502826  0.33117515  0.57562041    -0.01560
C959        C  0.47907917  0.24086212  0.77993873    -0.02680
C960        C  0.43477168  0.22531644  0.76669938     0.07000
C961        C  0.39300823  0.19945162  0.78307012    -0.02790
C962        C  0.39591927  0.19116893  0.81308702    -0.02800
C963        C  0.44053062  0.20595448  0.82600854     0.07130
C964        C  0.48182753  0.22944714  0.80910741    -0.02990
Br965      Br  0.54230709  0.24620225  0.82566144    -0.01540
Br966      Br  0.53627202  0.27949516  0.75857628    -0.01610
Br967      Br  0.33912091  0.15923739  0.83640461    -0.01570
Br968      Br  0.33231328  0.17475697  0.76421649    -0.01560
C969        C  0.86376932  0.41321327  0.55204740    -0.02680
C970        C  0.82116173  0.37309991  0.56161696     0.07000
C971        C  0.77758576  0.37107398  0.55596202    -0.02790
C972        C  0.77661372  0.40725394  0.53998820    -0.02800
C973        C  0.81942187  0.44801913  0.53172538     0.07130
C974        C  0.86302657  0.45148449  0.53959982    -0.02990
Br975      Br  0.92340315  0.50986352  0.53626871    -0.01540
Br976      Br  0.92454888  0.41635826  0.55269944    -0.01610
Br977      Br  0.71611844  0.39955842  0.52890634    -0.01570
Br978      Br  0.71882739  0.31975494  0.57072653    -0.01560
C979        C  0.02637397  0.41131875  0.68504915    -0.02680
C980        C  0.03669224  0.37979852  0.69941119     0.07000
C981        C  0.01800350  0.33429479  0.68780973    -0.02790
C982        C  0.00321798  0.32592997  0.65897426    -0.02800
C983        C  0.98770524  0.35379991  0.64563975     0.07130
C984        C  0.99834342  0.39657126  0.65900129    -0.02990
Br985      Br  0.97511074  0.43397669  0.64188434    -0.01540
Br986      Br  0.04981767  0.47300822  0.70083410    -0.01610
Br987      Br  0.00428866  0.27583529  0.63780125    -0.01570
Br988      Br  0.01627853  0.28385400  0.71011843    -0.01560
C989        C  0.82338447  0.26153506  0.69821156    -0.02680
C990        C  0.79570813  0.22306131  0.67941571     0.07000
C991        C  0.75941720  0.18100996  0.69144116    -0.02790
C992        C  0.75220900  0.17687701  0.72204543    -0.02800
C993        C  0.78373538  0.21314171  0.74118658     0.07130
C994        C  0.81807063  0.25630713  0.72903245    -0.02990
Br995      Br  0.85857314  0.30772667  0.75468578    -0.01540
Br996      Br  0.86973456  0.32082792  0.68177694    -0.01610
Br997      Br  0.69708183  0.12279844  0.73728226    -0.01570
Br998      Br  0.72078154  0.12837996  0.66592641    -0.01560
C999        C  0.81880118  0.20872839  0.94499928    -0.02680
C1000       C  0.78476681  0.21623662  0.93120740     0.07000
C1001       C  0.76237929  0.23600166  0.94699715    -0.02790
C1002       C  0.77306256  0.24708372  0.97684353    -0.02800
C1003       C  0.80644838  0.23883228  0.99073414     0.07130
C1004       C  0.82959620  0.21996522  0.97482883    -0.02990
Br1005     Br  0.87540568  0.20874545  0.99403872    -0.01540
Br1006     Br  0.84968816  0.18200654  0.92311011    -0.01610
Br1007     Br  0.74183548  0.27318195  0.49885032    -0.01570
Br1008     Br  0.71853027  0.24956241  0.92760770    -0.01560
C1009       C  0.37640502  0.32726704  0.58207301    -0.02680
C1010       C  0.39797604  0.35511323  0.60758092     0.07000
C1011       C  0.41467931  0.40362991  0.60643568    -0.02790
C1012       C  0.40735362  0.42264177  0.58048334    -0.02800
C1013       C  0.38652399  0.39396939  0.55563296     0.07130
C1014       C  0.37787553  0.34843785  0.55562250    -0.02990
Br1015     Br  0.36136828  0.31330002  0.51951734    -0.01540
Br1016     Br  0.33717401  0.25939793  0.58310582    -0.01610
Br1017     Br  0.42857327  0.48801396  0.57743283    -0.01570
Br1018     Br  0.44423950  0.44307668  0.64011693    -0.01560
C1019       C  0.19024737  0.42970891  0.63973481    -0.02680
C1020       C  0.22871370  0.45147260  0.65952026     0.07000
C1021       C  0.27469287  0.47979882  0.64764799    -0.02790
C1022       C  0.28199092  0.47805447  0.61703405    -0.02800
C1023       C  0.24361582  0.44814690  0.59846299     0.07130
C1024       C  0.19748799  0.42618016  0.60983880    -0.02990
Br1025     Br  0.14324045  0.39118330  0.58457028    -0.01540
Br1026     Br  0.12749412  0.41034545  0.65238408    -0.01610
Br1027     Br  0.34417271  0.51547787  0.60072539    -0.01570
Br1028     Br  0.32736052  0.52116834  0.67263920    -0.01560
C1029       C  0.21189788  0.39460157  0.89367416    -0.02680
C1030       C  0.23836401  0.43652752  0.90959064     0.07000
C1031       C  0.25553734  0.48004816  0.89571704    -0.02790
C1032       C  0.24917319  0.48179324  0.86541357    -0.02800
C1033       C  0.22447038  0.43995487  0.84919257     0.07130
C1034       C  0.20459414  0.39629650  0.86339066    -0.02990
Br1035     Br  0.16632349  0.33914964  0.84151656    -0.01540
Br1036     Br  0.18476831  0.33530562  0.91370288    -0.01610
Br1037     Br  0.27472702  0.54146666  0.84603467    -0.01570
Br1038     Br  0.28653126  0.53720324  0.91831713    -0.01560
C1039       C  0.07374562  0.28103827  0.52864393    -0.02680
C1040       C  0.10174021  0.32895122  0.52007269     0.07000
C1041       C  0.07929006  0.35585451  0.51964839    -0.02790
C1042       C  0.03511633  0.33925754  0.53322167    -0.02800
C1043       C  0.00764790  0.29215566  0.54281159     0.07130
C1044       C  0.02665295  0.26270332  0.53921583    -0.02990
Br1045     Br  0.98759812  0.19694239  0.54799280    -0.01540
Br1046     Br  0.09787765  0.23900082  0.02541343    -0.01610
Br1047     Br  0.01642899  0.38472227  0.54169729    -0.01570
Br1048     Br  0.10700900  0.41548906  0.49939952    -0.01560
C1049       C  0.27248409  0.24020692  0.97475053    -0.02680
C1050       C  0.27959402  0.28025033  0.95911788     0.07000
C1051       C  0.30037693  0.28800026  0.93074912    -0.02790
C1052       C  0.32255230  0.26324253  0.92137007    -0.02800
C1053       C  0.32219097  0.22867505  0.93931954     0.07130
C1054       C  0.29458832  0.21531981  0.96521043    -0.02990
Br1055     Br  0.29082327  0.16587211  0.98954403    -0.01540
Br1056     Br  0.23456564  0.21966341  0.50997372    -0.01610
Br1057     Br  0.35364587  0.27650754  0.88377521    -0.01570
Br1058     Br  0.29738803  0.33133330  0.90377195    -0.01560
C1059       C  0.42815248  0.65397769  0.96433704    -0.02680
C1060       C  0.44671308  0.65047845  0.93691628     0.07000
C1061       C  0.42813894  0.60582434  0.92411382    -0.02790
C1062       C  0.39926554  0.56530660  0.94041707    -0.02800
C1063       C  0.38163656  0.56836128  0.96813491     0.07130
C1064       C  0.39482163  0.61292096  0.97947970    -0.02990
Br1065     Br  0.37132020  0.61742159  0.51733539    -0.01540
Br1066     Br  0.44911368  0.71405348  0.48229331    -0.01610
Br1067     Br  0.38704398  0.50624722  0.92450139    -0.01570
Br1068     Br  0.44205394  0.59997295  0.88368092    -0.01560
C1069       C  0.70848837  0.96226930  0.92458855    -0.02680
C1070       C  0.71142413  0.92795863  0.90826478     0.07000
C1071       C  0.74064131  0.94215295  0.88314675    -0.02790
C1072       C  0.75992670  0.98808309  0.87175955    -0.02800
C1073       C  0.75078337  0.02092278  0.88575343     0.07130
C1074       C  0.72962289  0.00880870  0.91417217    -0.02990
Br1075     Br  0.73119251  0.05559345  0.94030310    -0.01540
Br1076     Br  0.67584470  0.94509142  0.96166225    -0.01610
Br1077     Br  0.79922457  0.00468768  0.83731687    -0.01570
Br1078     Br  0.75285485  0.89802472  0.86344774    -0.01560
C1079       C  0.69053440  0.67121019  0.97559990    -0.02680
C1080       C  0.71386054  0.71883895  0.96679454     0.07000
C1081       C  0.76304490  0.74716761  0.97181750    -0.02790
C1082       C  0.78934562  0.72736970  0.98303363    -0.02800
C1083       C  0.76621130  0.67869985  0.98995247     0.07130
C1084       C  0.71599671  0.65242055  0.98878502    -0.02990
Br1085     Br  0.68017717  0.59103012  0.00669234    -0.01540
Br1086     Br  0.62393707  0.62845996  0.96691937    -0.01610
Br1087     Br  0.85661019  0.76862103  0.48932888    -0.01570
Br1088     Br  0.79423966  0.81345640  0.96389786    -0.01560
C1089       C  0.38371141  0.82136198  0.65258947    -0.02680
C1090       C  0.36997860  0.80833634  0.62292852     0.07000
C1091       C  0.39024425  0.78640900  0.60723495    -0.02790
C1092       C  0.42639730  0.78087134  0.62027534    -0.02800
C1093       C  0.44307791  0.79802468  0.64906787     0.07130
C1094       C  0.41903157  0.81506673  0.66565509    -0.02990
Br1095     Br  0.43455710  0.82930195  0.70675876    -0.01540
Br1096     Br  0.35669387  0.85030389  0.67573422    -0.01610
Br1097     Br  0.45355980  0.75137708  0.59780304    -0.01570
Br1098     Br  0.37152361  0.76817210  0.56691640    -0.01560
C1099       C  0.61884306  0.00163397  0.77280948    -0.02680
C1100       C  0.66746348  0.02522637  0.78047285     0.07000
C1101       C  0.69994083  0.02308838  0.76100333    -0.02790
C1102       C  0.68608632  0.00705988  0.73258572    -0.02800
C1103       C  0.63779375  0.97915492  0.72585261     0.07130
C1104       C  0.60375247  0.97590993  0.74610320    -0.02990
Br1105     Br  0.53750674  0.93647308  0.73720729    -0.01540
Br1106     Br  0.57362990  0.00400655  0.79839347    -0.01610
Br1107     Br  0.73375131  0.02027877  0.70319340    -0.01570
Br1108     Br  0.76453507  0.04259729  0.77251734    -0.01560
C1109       C  0.55025381  0.77700282  0.77821175    -0.02680
C1110       C  0.59394707  0.79959099  0.76267626     0.07000
C1111       C  0.63650362  0.81427113  0.77892230    -0.02790
C1112       C  0.63428877  0.79969938  0.80761803    -0.02800
C1113       C  0.59337721  0.78626549  0.82441749     0.07130
C1114       C  0.55027576  0.77250332  0.80925621    -0.02990
Br1115     Br  0.49069538  0.74433826  0.82995260    -0.01540
Br1116     Br  0.49034062  0.75504486  0.75827742    -0.01610
Br1117     Br  0.68634666  0.79244130  0.82112166    -0.01570
Br1118     Br  0.70015086  0.86032889  0.76609426    -0.01560
C1119       C  0.56661402  0.74416926  0.53479176    -0.02680
C1120       C  0.56949966  0.77639305  0.51312274     0.07000
C1121       C  0.57020908  0.81749731  0.52223140    -0.02790
C1122       C  0.57617781  0.82992476  0.55194063    -0.02800
C1123       C  0.57073321  0.79684264  0.57354309     0.07130
C1124       C  0.56274120  0.75260638  0.56453375    -0.02990
Br1125     Br  0.54310797  0.70134420  0.59196699    -0.01540
Br1126     Br  0.56993916  0.68878000  0.52560289    -0.01610
Br1127     Br  0.59551538  0.89422066  0.56138674    -0.01570
Br1128     Br  0.55899035  0.85607928  0.99527073    -0.01560
C1129       C  0.76976585  0.01845982  0.61815817    -0.02680
C1130       C  0.71975970  0.99670260  0.61955322     0.07000
C1131       C  0.69821789  0.02070147  0.60712207    -0.02790
C1132       C  0.72561960  0.06372325  0.59275482    -0.02800
C1133       C  0.77559536  0.08866652  0.59523869     0.07130
C1134       C  0.79766202  0.06472241  0.60700851    -0.02990
Br1135     Br  0.86590014  0.09435636  0.60870094    -0.01540
Br1136     Br  0.80051610  0.98531224  0.63151739    -0.01610
Br1137     Br  0.69338199  0.08720502  0.56865474    -0.01570
Br1138     Br  0.63180859  0.00011414  0.61309067    -0.01560
C1139       C  0.61706467  0.45762395  0.69938073    -0.02680
C1140       C  0.64779743  0.45273320  0.71920327     0.07000
C1141       C  0.64505342  0.40878998  0.72048189    -0.02790
C1142       C  0.60842045  0.36952963  0.70515300    -0.02800
C1143       C  0.57274530  0.37340641  0.69006270     0.07130
C1144       C  0.58161369  0.41875881  0.68397546    -0.02990
Br1145     Br  0.54781108  0.42826022  0.65226320    -0.01540
Br1146     Br  0.62198110  0.51714832  0.69234704    -0.01610
Br1147     Br  0.61187699  0.31361097  0.70096891    -0.01570
Br1148     Br  0.68915487  0.40117277  0.74449713    -0.01560
C1149       C  0.83260061  0.57580882  0.65024511    -0.02680
C1150       C  0.79222051  0.57887850  0.65794419     0.07000
C1151       C  0.76228669  0.57798828  0.63507927    -0.02790
C1152       C  0.76895390  0.56840173  0.60617779    -0.02800
C1153       C  0.81199114  0.57134192  0.59785179     0.07130
C1154       C  0.84349025  0.57410753  0.62040412    -0.02990
Br1155     Br  0.90097044  0.57331822  0.61178277    -0.01540
Br1156     Br  0.87405409  0.57323763  0.67975108    -0.01610
Br1157     Br  0.71462829  0.54466992  0.57986061    -0.01570
Br1158     Br  0.71437123  0.59484833  0.64114183    -0.01560
C1159       C  0.80530221  0.54264513  0.86071430    -0.02680
C1160       C  0.77393197  0.55530727  0.84829861     0.07000
C1161       C  0.74166145  0.55886497  0.86701375    -0.02790
C1162       C  0.74839585  0.56153145  0.89761211    -0.02800
C1163       C  0.78412307  0.55535326  0.90985810     0.07130
C1164       C  0.80844690  0.54023274  0.89163134    -0.02990
Br1165     Br  0.84657438  0.51758433  0.90917116    -0.01540
Br1166     Br  0.84562866  0.53148049  0.83565960    -0.01610
Br1167     Br  0.70894142  0.57378891  0.92293217    -0.01570
Br1168     Br  0.68550554  0.55507192  0.85130893    -0.01560
C1169       C  0.61547944  0.62491804  0.80985423    -0.02680
C1170       C  0.66279111  0.63513607  0.80896399     0.07000
C1171       C  0.69343131  0.65954361  0.83296148    -0.02790
C1172       C  0.67503972  0.66429810  0.85923403    -0.02800
C1173       C  0.62926963  0.65724732  0.85977255     0.07130
C1174       C  0.59987864  0.63913643  0.83461328    -0.02990
Br1175     Br  0.54015968  0.63682317  0.83351661    -0.01540
Br1176     Br  0.57320806  0.59384705  0.77732201    -0.01610
Br1177     Br  0.71485195  0.68550833  0.89391335    -0.01570
Br1178     Br  0.76192242  0.69242694  0.82968472    -0.01560
C1179       C  0.69012899  0.69912531  0.69509252    -0.02680
C1180       C  0.73215152  0.72052777  0.71246478     0.07000
C1181       C  0.75832035  0.76997888  0.71415488    -0.02790
C1182       C  0.74161114  0.79708218  0.69978304    -0.02800
C1183       C  0.69930397  0.77499748  0.68253932     0.07130
C1184       C  0.67607140  0.72599716  0.67882708    -0.02990
Br1185     Br  0.62451590  0.69463220  0.65073310    -0.01540
Br1186     Br  0.64662784  0.63237666  0.69600531    -0.01610
Br1187     Br  0.77669168  0.86418722  0.70451125    -0.01570
Br1188     Br  0.81689187  0.80049907  0.73611582    -0.01560
C1189       C  0.19189993  0.60150288  0.82370797    -0.02680
C1190       C  0.22404192  0.64735173  0.81425089     0.07000
C1191       C  0.25974235  0.65426795  0.79403337    -0.02790
C1192       C  0.25779344  0.61512925  0.78004386    -0.02800
C1193       C  0.21962520  0.56949781  0.78565769     0.07130
C1194       C  0.18685603  0.56303374  0.80795422    -0.02990
Br1195     Br  0.13194658  0.50256907  0.81630248    -0.01540
Br1196     Br  0.15366181  0.59144860  0.85826418    -0.01610
Br1197     Br  0.30414617  0.62427019  0.75089503    -0.01570
Br1198     Br  0.31055909  0.71657565  0.78487472    -0.01560
C1199       C  0.99198512  0.62476122  0.88157700    -0.02680
C1200       C  0.03584286  0.62979855  0.88856268     0.07000
C1201       C  0.04444516  0.61989509  0.91697719    -0.02790
C1202       C  0.01326785  0.61375357  0.93981251    -0.02800
C1203       C  0.97293982  0.61754771  0.93373467     0.07130
C1204       C  0.96252470  0.62317182  0.90413574    -0.02990
Br1205     Br  0.91354686  0.63658893  0.89323975    -0.01540
Br1206     Br  0.97609868  0.62711086  0.84094547    -0.01610
Br1207     Br  0.03170316  0.60889199  0.97947512    -0.01570
Br1208     Br  0.09960260  0.61564258  0.92408983    -0.01560
C1209       C  0.25352545  0.97921952  0.89505639    -0.02680
C1210       C  0.29350209  0.01374253  0.87947563     0.07000
C1211       C  0.30117788  0.00121855  0.85081435    -0.02790
C1212       C  0.27599890  0.95402658  0.84105467    -0.02800
C1213       C  0.24124046  0.91866634  0.85887049     0.07130
C1214       C  0.22877355  0.93196926  0.88540808    -0.02990
Br1215     Br  0.18058294  0.88496266  0.91056117    -0.01540
Br1216     Br  0.22906082  0.99583313  0.92834827    -0.01610
Br1217     Br  0.28849953  0.93772219  0.80275734    -0.01570
Br1218     Br  0.34340233  0.04809421  0.82309546    -0.01560
C1219       C  0.00808629  0.72689566  0.77090666    -0.02680
C1220       C  0.01877260  0.73722313  0.80122733     0.07000
C1221       C  0.98289481  0.73464348  0.81979143    -0.02790
C1222       C  0.93598825  0.71531800  0.80913554    -0.02800
C1223       C  0.92436559  0.69867556  0.77995320     0.07130
C1224       C  0.96099089  0.70699382  0.76052035    -0.02990
Br1225     Br  0.94625791  0.69121506  0.71958737    -0.01540
Br1226     Br  0.05789296  0.74068163  0.74313647    -0.01610
Br1227     Br  0.88693003  0.70869851  0.83540480    -0.01570
Br1228     Br  0.99580204  0.75406184  0.86047779    -0.01560
C1229       C  0.27276844  0.83067863  0.93915403    -0.02680
C1230       C  0.24611675  0.78536256  0.92779244     0.07000
C1231       C  0.23358510  0.74706213  0.94639706    -0.02790
C1232       C  0.23671619  0.75340643  0.97724481    -0.02800
C1233       C  0.25727196  0.79909437  0.98908986     0.07130
C1234       C  0.28010649  0.83737794  0.96950904    -0.02990
Br1235     Br  0.32492655  0.89876945  0.98298956    -0.01540
Br1236     Br  0.29945496  0.88352875  0.91277139    -0.01610
Br1237     Br  0.21025646  0.69970260  0.50259422    -0.01570
Br1238     Br  0.21756297  0.68810361  0.92917025    -0.01560
C1239       C  0.20031533  0.81237623  0.72550478    -0.02680
C1240       C  0.20744259  0.77783225  0.73817714     0.07000
C1241       C  0.21504658  0.74763269  0.72019164    -0.02790
C1242       C  0.22149461  0.75580650  0.69001931    -0.02800
C1243       C  0.21655576  0.79169429  0.67764294     0.07130
C1244       C  0.20320090  0.81807510  0.69495517    -0.02990
Br1245     Br  0.18577496  0.85925919  0.67632184    -0.01540
Br1246     Br  0.18438938  0.85003482  0.74970264    -0.01610
Br1247     Br  0.23864668  0.71904834  0.66573909    -0.01570
Br1248     Br  0.21565822  0.69437551  0.73642660    -0.01560
loop_ 
_geom_bond_atom_site_label_1 
_geom_bond_atom_site_label_2 
_geom_bond_distance 
_geom_bond_site_symmetry_2 
_ccdc_geom_bond_type 
Fe1          O17   2.049       .  S
Fe1           O7   2.035       .  S
Fe1          O14   2.051       .  S
Fe1           O6   2.022       .  S
Fe1          O12   1.963       .  S
Fe2           O5   2.058       .  S
Fe2           O9   2.097       .  S
Fe2          O13   2.047       .  S
Fe2          O18   2.084       .  S
Fe2          O12   1.952       .  S
Fe3          O21   2.109       .  S
Fe3           O8   2.072       .  S
Fe3          O15   2.075       .  S
Fe3           O4   2.099       .  S
Fe3          O12   1.977       .  S
O4           C11   1.269       .  A
O5           C19   1.264       .  A
O6           C11   1.261       .  A
O7           C10   1.266       .  A
O8           C20   1.272       .  A
O9           C22   1.274       .  A
C10          O15   1.277       .  A
C10         C616   1.457       .  S
C11         C566   1.491       .  S
O13          C16   1.267       .  A
O14          C16   1.263       .  A
C16         C576   1.457       .  S
O17          C22   1.265       .  A
O18          C20   1.276       .  A
C19          O21   1.275       .  A
C19         C589   1.502       .  S
C20         C606   1.475       .  S
C22         C596   1.502       .  S
Fe23         O39   2.032       .  S
Fe23         O29   2.100       .  S
Fe23         O36   2.155       .  S
Fe23         O28   2.049       .  S
Fe23         O34   1.928       .  S
Fe24         O27   2.049       .  S
Fe24         O31   2.183       .  S
Fe24         O35   1.996       .  S
Fe24         O40   2.096       .  S
Fe24         O34   1.888       .  S
Fe25         O43   2.132       .  S
Fe25         O30   2.091       .  S
Fe25         O37   2.056       .  S
Fe25         O26   2.139       .  S
Fe25         O34   1.913       .  S
O26          C33   1.282       .  A
O27          C41   1.275       .  A
O28          C33   1.265       .  A
O29          C32   1.278       .  A
O30          C42   1.274       .  A
O31          C44   1.291       .  A
C32          O37   1.272       .  A
C32         C526   1.499       .  S
C33         C516   1.501       .  S
O35          C38   1.236       .  A
O36          C38   1.270       .  A
C38         C546   1.482       .  S
O39          C44   1.262       .  A
O40          C42   1.275       .  A
C41          O43   1.287       .  A
C41         C599   1.488       .  S
C42         C536   1.493       .  S
C44         C556   1.511       .  S
Fe45         O61   2.045       .  S
Fe45         O51   2.079       .  S
Fe45         O58   2.100       .  S
Fe45         O50   2.042       .  S
Fe45         O56   1.922       .  S
Fe46         O49   2.078       .  S
Fe46         O53   2.119       .  S
Fe46         O57   2.007       .  S
Fe46         O62   2.060       .  S
Fe46         O56   1.919       .  S
Fe47         O65   2.094       .  S
Fe47         O52   2.083       .  S
Fe47         O59   2.045       .  S
Fe47         O48   2.117       .  S
Fe47         O56   1.927       .  S
O48          C55   1.270       .  A
O49          C63   1.273       .  A
O50          C55   1.261       .  A
O51          C54   1.277       .  A
O52          C64   1.279       .  A
O53          C66   1.279       .  A
C54          O59   1.275       .  A
C54         C499   1.480       .  S
C55         C469   1.494       .  S
O57          C60   1.262       .  A
O58          C60   1.274       .  A
C60         C479   1.463       .  S
O61          C66   1.262       .  A
O62          C64   1.270       .  A
C63          O65   1.274       .  A
C63         C559   1.509       .  S
C64         C486   1.499       .  S
C66         C506   1.507       .  S
Fe67         O83   2.038       .  S
Fe67         O73   2.082       .  S
Fe67         O80   2.095       .  S
Fe67         O72   2.024       .  S
Fe67         O78   1.911       .  S
Fe68         O71   2.066       .  S
Fe68         O75   2.124       .  S
Fe68         O79   2.020       .  S
Fe68         O84   2.076       .  S
Fe68         O78   1.915       .  S
Fe69         O87   2.123       .  S
Fe69         O74   2.078       .  S
Fe69         O81   2.042       .  S
Fe69         O70   2.126       .  S
Fe69         O78   1.929       .  S
O70          C77   1.271       .  A
O71          C85   1.273       .  A
O72          C77   1.257       .  A
O73          C76   1.275       .  A
O74          C86   1.275       .  A
O75          C88   1.282       .  A
C76          O81   1.275       .  A
C76        C1120   1.484       .  S
C77         C436   1.497       .  S
O79          C82   1.259       .  A
O80          C82   1.272       .  A
C82         C549   1.460       .  S
O83          C88   1.262       .  A
O84          C86   1.273       .  A
C85          O87   1.280       .  A
C85         C446   1.499       .  S
C86         C489   1.495       .  S
C88         C456   1.496       .  S
Fe89        O105   2.045       .  S
Fe89         O95   2.085       .  S
Fe89         O94   2.042       .  S
Fe89        O726   2.075       .  S
Fe89        O724   1.945       .  S
Fe90         O93   2.081       .  S
Fe90         O97   2.114   1_554  S
Fe90        O101   2.044       .  S
Fe90        O106   2.103       .  S
Fe90        O100   1.940       .  S
Fe91        O103   2.053       .  S
Fe91         O92   2.106       .  S
Fe91        O733   2.091       .  S
Fe91        O720   2.080       .  S
Fe91        O724   1.956       .  S
O92          C99   1.269       .  A
O93         C107   1.266       .  A
O94          C99   1.255       .  A
O95          C98   1.278       .  A
O96        Fe715   2.080       .  S
O96         C108   1.278       .  A
O97         C734   1.276       .  A
C98         O103   1.274       .  A
C98         C406   1.460       .  S
C99         C439   1.490       .  S
O100       Fe713   1.945   1_554  S
O100       Fe715   1.956       .  S
O101        C104   1.270       .  A
O102       Fe713   2.075   1_554  S
O102        C104   1.271       .  A
C104        C389   1.460       .  S
O105        C110   1.263       .  A
O106        C108   1.281       .  A
C107        O109   1.272       .  A
C107        C416   1.519       .  S
C108        C399   1.488       .  S
O109       Fe715   2.091       .  S
C110        O721   1.276       .  A
C110        C426   1.515       .  S
Fe111       O127   2.038       .  S
Fe111       O117   2.104       .  S
Fe111       O124   2.101       .  S
Fe111       O116   2.042       .  S
Fe111       O122   1.918       .  S
Fe112       O115   2.070       .  S
Fe112       O119   2.147       .  S
Fe112       O123   2.004       .  S
Fe112       O128   2.107       .  S
Fe112       O122   1.908       .  S
Fe113       O131   2.100       .  S
Fe113       O118   2.078       .  S
Fe113       O125   2.043       .  S
Fe113       O114   2.123       .  S
Fe113       O122   1.933       .  S
O114        C121   1.269       .  A
O115        C129   1.271       .  A
O116        C121   1.252       .  A
O117        C120   1.282       .  A
O118        C130   1.278       .  A
O119        C132   1.285       .  A
C120        O125   1.275       .  A
C120       C1003   1.462   1_554  S
C121        C346   1.503       .  S
O123        C126   1.259       .  A
O124        C126   1.270       .  A
C126        C359   1.465       .  S
O127        C132   1.264       .  A
O128        C130   1.281       .  A
C129        O131   1.278       .  A
C129        C509   1.508       .  S
C130        C366   1.485       .  S
C132        C419   1.507   1_655  S
Fe133       O149   2.030       .  S
Fe133       O139   2.097       .  S
Fe133       O146   2.130       .  S
Fe133       O138   2.035       .  S
Fe133       O144   1.936       .  S
Fe134       O137   2.047       .  S
Fe134       O141   2.163       .  S
Fe134       O145   1.998       .  S
Fe134       O150   2.098       .  S
Fe134       O144   1.896       .  S
Fe135       O153   2.137       .  S
Fe135       O140   2.080       .  S
Fe135       O147   2.047       .  S
Fe135       O136   2.132       .  S
Fe135       O144   1.927       .  S
O136        C143   1.277       .  A
O137        C151   1.270       .  A
O138        C143   1.263       .  A
O139        C142   1.281       .  A
O140        C152   1.273       .  A
O141        C154   1.287       .  A
C142        O147   1.274       .  A
C142        C339   1.464       .  S
C143        C309   1.504       .  S
O145        C148   1.242       .  A
O146        C148   1.272       .  A
C148        C316   1.467       .  S
O149        C154   1.261       .  A
O150        C152   1.277       .  A
C151        O153   1.286       .  A
C151        C429   1.496       .  S
C152        C953   1.486       .  S
C154        C586   1.525       .  S
Fe155       O171   2.037       .  S
Fe155       O161   2.106       .  S
Fe155       O168   2.130       .  S
Fe155       O160   2.057       .  S
Fe155       O166   1.944       .  S
Fe156       O159   2.063       .  S
Fe156       O163   2.143       .  S
Fe156       O167   1.987       .  S
Fe156       O172   2.107       .  S
Fe156       O166   1.907       .  S
Fe157       O175   2.101       .  S
Fe157       O162   2.087       .  S
Fe157       O169   2.046       .  S
Fe157       O158   2.104       .  S
Fe157       O166   1.927       .  S
O158        C165   1.271       .  A
O159        C173   1.268       .  A
O160        C165   1.263       .  A
O161        C164   1.282       .  A
O162        C174   1.277       .  A
O163        C176   1.284       .  A
C164        O169   1.275       .  A
C164        C376   1.464       .  S
C165        C306   1.497       .  S
O167        C170   1.249       .  A
O168        C170   1.275       .  A
C170        C476   1.479       .  S
O171        C176   1.263       .  A
O172        C174   1.279       .  A
C173        O175   1.277       .  A
C173        C296   1.515       .  S
C174        C369   1.494       .  S
C176        C449   1.523       .  S
Fe177       O193   2.023       .  S
Fe177       O183   2.063       .  S
Fe177       O190   2.148       .  S
Fe177       O182   2.050       .  S
Fe177       O188   1.943       .  S
Fe178       O181   2.048       .  S
Fe178       O185   2.164       .  S
Fe178       O189   1.999       .  S
Fe178       O194   2.081       .  S
Fe178       O188   1.892       .  S
Fe179       O197   2.131       .  S
Fe179       O184   2.100       .  S
Fe179       O191   2.046       .  S
Fe179       O180   2.123       .  S
Fe179       O188   1.920       .  S
O180        C187   1.280       .  A
O181        C195   1.274       .  A
O182        C187   1.268       .  A
O183        C186   1.274       .  A
O184        C196   1.275       .  A
O185        C198   1.279       .  A
C186        O191   1.272       .  A
C186        C619   1.450       .  S
C187        C466   1.491       .  S
O189        C192   1.236       .  A
O190        C192   1.275       .  A
C192        C319   1.467       .  S
O193        C198   1.251       .  A
O194        C196   1.270       .  A
C195        O197   1.287       .  A
C195        C276   1.485       .  S
C196       C1233   1.497   1_554  S
C198        C286   1.521       .  S
Fe199       O215   2.033       .  S
Fe199       O205   2.097       .  S
Fe199       O212   2.101       .  S
Fe199       O204   2.036       .  S
Fe199       O210   1.926       .  S
Fe200       O203   2.058       .  S
Fe200       O207   2.141       .  S
Fe200       O211   1.976       .  S
Fe200       O216   2.122       .  S
Fe200       O210   1.914       .  S
Fe201       O219   2.104       .  S
Fe201       O206   2.082       .  S
Fe201       O213   2.053       .  S
Fe201       O202   2.115       .  S
Fe201       O210   1.953       .  S
O202        C209   1.268       .  A
O203        C217   1.265       .  A
O204        C209   1.253       .  A
O205        C208   1.279       .  A
O206        C218   1.281       .  A
O207        C220   1.285       .  A
C208        O213   1.278       .  A
C208        C409   1.461       .  S
C209        C569   1.486       .  S
O211        C214   1.256       .  A
O212        C214   1.269       .  A
C214        C356   1.474       .  S
O215        C220   1.263       .  A
O216        C218   1.290       .  A
C217        O219   1.272       .  A
C217        C269   1.503       .  S
C218        C396   1.503       .  S
C220        C299   1.505       .  S
Fe221       O237   2.063       .  S
Fe221       O227   2.119       .  S
Fe221       O226   2.043       .  S
Fe221       O858   2.063   1_554  S
Fe221       O232   1.910       .  S
Fe222       O225   2.059       .  S
Fe222       O233   2.022       .  S
Fe222       O238   2.123       .  S
Fe222       O853   2.094       .  S
Fe222       O856   1.919       .  S
Fe223       O241   2.090   1_554  S
Fe223       O235   2.036       .  S
Fe223       O224   2.113       .  S
Fe223       O852   2.064   1_554  S
Fe223       O232   1.944       .  S
O224        C231   1.262       .  A
O225        C239   1.258       .  A
O226        C231   1.248       .  A
O227        C230   1.286       .  A
O228       Fe847   2.064       .  S
O228        C240   1.280       .  A
O229       Fe846   2.094   1_554  S
O229        C242   1.278       .  A
C230        O235   1.276       .  A
C230        C529   1.499       .  S
C231        C349   1.500       .  S
O232       Fe846   1.919   1_554  S
O233        C236   1.260       .  A
O234       Fe845   2.063       .  S
O234        C236   1.269       .  A
C236        C579   1.476       .  S
O237        C242   1.272       .  A
O238        C240   1.290       .  A
C239        O865   1.268       .  A
C239        C459   1.508       .  S
C240        C539   1.481       .  S
O241        C863   1.268       .  A
C242        C279   1.491   1_655  S
Fe243       O259   2.048       .  S
Fe243       O249   2.083       .  S
Fe243       O256   2.152       .  S
Fe243       O248   2.040       .  S
Fe243       O254   1.940       .  S
Fe244       O247   2.035       .  S
Fe244       O251   2.136       .  S
Fe244       O255   1.999       .  S
Fe244       O260   2.069       .  S
Fe244       O254   1.904       .  S
Fe245       O263   2.140       .  S
Fe245       O250   2.087       .  S
Fe245       O257   2.059       .  S
Fe245       O246   2.120       .  S
Fe245       O254   1.922       .  S
O246        C253   1.278       .  A
O247        C261   1.274       .  A
O248        C253   1.269       .  A
O249        C252   1.278       .  A
O250        C262   1.267       .  A
O251        C264   1.280       .  A
C252        O257   1.275       .  A
C252        C336   1.466       .  S
C253        C519   1.505       .  S
O255        C258   1.241       .  A
O256        C258   1.277       .  A
C258        C386   1.482       .  S
O259        C264   1.261       .  A
O260        C262   1.264       .  A
C261        O263   1.291       .  A
C261        C289   1.487       .  S
C262        C326   1.478       .  S
C264        C266   1.494       .  S
C265        C266   1.413       .  A
C265        C270   1.421       .  A
C265       Br272   1.919       .  S
C266        C267   1.401       .  A
C267        C268   1.402       .  A
C267       Br274   1.924       .  S
C268        C269   1.418       .  A
C268       Br273   1.917       .  S
C269        C270   1.417       .  A
C270       Br271   1.929       .  S
C275        C276   1.412       .  A
C275        C280   1.410       .  A
C275       Br282   1.931   1_554  S
C276        C277   1.408       .  A
C277        C278   1.414       .  A
C277       Br284   1.928       .  S
C278        C279   1.414       .  A
C278       Br283   1.925   1_455  S
C279        C280   1.415       .  A
C280       Br905   1.935   1_554  S
Br281       C904   1.935       .  S
C285        C286   1.437   1_545  A
C285        C290   1.414       .  A
C285       Br292   1.936   1_545  S
C286        C287   1.421   1_565  A
C287        C288   1.414       .  A
C287       Br294   1.927       .  S
C288        C289   1.413       .  A
C288       Br293   1.935       .  S
C289        C290   1.400       .  A
C290       Br291   1.936       .  S
C295        C296   1.430       .  A
C295        C300   1.428   1_655  A
C295       Br302   1.930       .  S
C296        C297   1.416       .  A
C297        C298   1.400       .  A
C297       Br304   1.946       .  S
C298        C299   1.419   1_655  A
C298       Br303   1.932   1_655  S
C299        C300   1.411       .  A
C300       Br301   1.927       .  S
C305        C306   1.420       .  A
C305        C310   1.421       .  A
C305       Br312   1.927       .  S
C306        C307   1.419       .  A
C307        C308   1.403       .  A
C307       Br314   1.935       .  S
C308        C309   1.406       .  A
C308       Br313   1.927       .  S
C309        C310   1.411       .  A
C310       Br311   1.928       .  S
C315        C316   1.409       .  A
C315        C944   1.379   1_545  A
C315       Br322   1.941       .  S
C316        C317   1.411       .  A
C317        C942   1.418   1_545  A
C317       Br324   1.915       .  S
C318        C319   1.412       .  A
C318        C941   1.418   1_564  A
C318       Br323   1.925       .  S
C319        C320   1.418       .  A
C320        C939   1.379   1_564  A
C320       Br321   1.936       .  S
C325        C326   1.402       .  A
C325        C330   1.407       .  A
C325       Br332   1.931       .  S
C326        C327   1.413       .  A
C327        C328   1.412       .  A
C327       Br334   1.921       .  S
C328        C329   1.406       .  A
C328       Br957   1.926       .  S
C329        C776   1.486   1_554  S
C329        C330   1.413       .  A
C330       Br331   1.915       .  S
Br333       C952   1.926       .  S
C335        C336   1.402       .  A
C335        C340   1.397       .  A
C335       Br342   1.916       .  S
C336        C337   1.407       .  A
C337        C338   1.407       .  A
C337       Br344   1.920       .  S
C338        C339   1.409       .  A
C338       Br343   1.930       .  S
C339        C340   1.402       .  A
C340       Br341   1.916       .  S
C345        C346   1.422       .  A
C345        C350   1.404       .  A
C345       Br352   1.942       .  S
C346        C347   1.418       .  A
C347        C348   1.419       .  A
C347       Br354   1.931       .  S
C348        C349   1.418       .  A
C348       Br353   1.931       .  S
C349        C350   1.419       .  A
C350       Br351   1.945       .  S
C355        C356   1.414       .  A
C355        C360   1.422   1_455  A
C355       Br362   1.921       .  S
C356        C357   1.410       .  A
C357        C358   1.376       .  A
C357       Br364   1.936       .  S
C358        C359   1.401   1_455  A
C358       Br363   1.938       .  S
C359        C360   1.414       .  A
C360       Br361   1.922       .  S
C365        C366   1.413       .  A
C365        C370   1.416       .  A
C365       Br372   1.925       .  S
C366        C367   1.406       .  A
C367        C368   1.410       .  A
C367       Br374   1.932       .  S
C368        C369   1.413       .  A
C368       Br373   1.917       .  S
C369        C370   1.410       .  A
C370       Br371   1.926       .  S
C375        C376   1.407       .  A
C375        C380   1.404       .  A
C375       Br382   1.932       .  S
C376        C377   1.408       .  A
C377        C378   1.403       .  A
C377       Br384   1.924       .  S
C378        C379   1.405       .  A
C378      Br1007   1.928       .  S
C379        C744   1.462       .  S
C379        C380   1.408       .  A
C380       Br381   1.929       .  S
Br383      C1002   1.928       .  S
C385        C386   1.424       .  A
C385        C390   1.384       .  A
C385       Br392   1.943       .  S
C386        C387   1.413       .  A
C387        C388   1.417       .  A
C387       Br394   1.922       .  S
C388        C389   1.408       .  A
C388       Br393   1.917       .  S
C389        C390   1.389       .  A
C390       Br391   1.924       .  S
C395        C396   1.408       .  A
C395        C400   1.399       .  A
C395       Br402   1.908       .  S
C396        C397   1.418       .  A
C397        C398   1.422       .  A
C397       Br404   1.929       .  S
C398        C399   1.413       .  A
C398       Br403   1.919       .  S
C399        C400   1.403       .  A
C400       Br401   1.925       .  S
C405        C406   1.406       .  A
C405        C410   1.405       .  A
C405       Br412   1.930       .  S
C406        C407   1.407       .  A
C407        C408   1.401       .  A
C407       Br414   1.927       .  S
C408        C409   1.406       .  A
C408       Br413   1.930       .  S
C409        C410   1.409       .  A
C410       Br411   1.929       .  S
C415        C416   1.428       .  A
C415        C420   1.426       .  A
C415      Br1046   1.930       .  S
C416        C417   1.418       .  A
C417        C418   1.406       .  A
C417       Br424   1.942   1_554  S
C418        C419   1.420       .  A
C418       Br423   1.936       .  S
C419        C420   1.412       .  A
C420       Br421   1.929   1_455  S
Br422      C1039   1.930       .  S
C425        C426   1.420       .  A
C425        C430   1.418       .  A
C425      Br1056   1.934       .  S
C426        C427   1.425       .  A
C427        C428   1.414       .  A
C427       Br434   1.933       .  S
C428        C429   1.405       .  A
C428       Br433   1.930       .  S
C429        C430   1.417       .  A
C430       Br431   1.933       .  S
Br432      C1049   1.934   1_554  S
C435        C436   1.422       .  A
C435        C440   1.420       .  A
C435      Br1066   1.927       .  S
C436        C437   1.408       .  A
C437        C438   1.402       .  A
C437       Br444   1.933       .  S
C438        C439   1.416       .  A
C438       Br443   1.930       .  S
C439        C440   1.409       .  A
C440      Br1065   1.929       .  S
Br441      C1064   1.929   1_554  S
Br442      C1059   1.927       .  S
C445        C446   1.404       .  A
C445        C450   1.416   1_565  A
C445       Br452   1.928       .  S
C446        C447   1.414       .  A
C447        C448   1.420       .  A
C447       Br454   1.927       .  S
C448        C449   1.421   1_565  A
C448       Br453   1.929   1_565  S
C449        C450   1.430       .  A
C450       Br451   1.936       .  S
C455        C456   1.420       .  A
C455        C460   1.405       .  A
C455       Br462   1.940       .  S
C456        C457   1.409       .  A
C457        C458   1.419       .  A
C457       Br464   1.931       .  S
C458        C459   1.428       .  A
C458      Br1087   1.934       .  S
C459        C460   1.417       .  A
C460       Br461   1.941       .  S
Br463      C1082   1.934       .  S
C465        C466   1.418       .  A
C465        C470   1.407       .  A
C465       Br472   1.922       .  S
C466        C467   1.407       .  A
C467        C468   1.417       .  A
C467       Br474   1.930       .  S
C468        C469   1.420       .  A
C468       Br473   1.923       .  S
C469        C470   1.405       .  A
C470       Br471   1.932       .  S
C475        C476   1.413       .  A
C475        C480   1.420   1_545  A
C475       Br482   1.923       .  S
C476        C477   1.418       .  A
C477        C478   1.383       .  A
C477       Br484   1.941       .  S
C478        C479   1.399   1_545  A
C478       Br483   1.936       .  S
C479        C480   1.413       .  A
C480       Br481   1.919       .  S
C485        C486   1.424       .  A
C485        C490   1.422       .  A
C485       Br492   1.933       .  S
C486        C487   1.424       .  A
C487        C488   1.384       .  A
C487       Br494   1.947       .  S
C488        C489   1.408       .  A
C488       Br493   1.939       .  S
C489        C490   1.419       .  A
C490       Br491   1.932       .  S
C495        C496   1.424       .  A
C495        C500   1.403       .  A
C495       Br502   1.943       .  S
C496        C700   1.484   1_554  S
C496        C497   1.415       .  A
C497        C498   1.398       .  A
C497      Br1128   1.941   1_554  S
C498        C499   1.418       .  A
C498       Br503   1.939       .  S
C499        C500   1.414       .  A
C500       Br501   1.941       .  S
Br504      C1121   1.941       .  S
C505        C506   1.416   1_545  A
C505        C510   1.423       .  A
C505       Br512   1.931   1_545  S
C506        C507   1.424   1_565  A
C507        C508   1.405       .  A
C507       Br514   1.941       .  S
C508        C509   1.413       .  A
C508       Br513   1.940       .  S
C509        C510   1.424       .  A
C510       Br511   1.931       .  S
C515        C516   1.420       .  A
C515        C520   1.403       .  A
C515       Br522   1.927       .  S
C516        C517   1.417       .  A
C517        C518   1.422       .  A
C517       Br524   1.926       .  S
C518        C519   1.416       .  A
C518       Br523   1.926       .  S
C519        C520   1.409       .  A
C520       Br521   1.939       .  S
C525        C526   1.424       .  A
C525        C530   1.415       .  A
C525       Br532   1.940       .  S
C526        C527   1.418       .  A
C527        C528   1.398       .  A
C527       Br534   1.939       .  S
C528        C529   1.417       .  A
C528       Br533   1.943       .  S
C529        C530   1.423       .  A
C530       Br531   1.940       .  S
C535        C536   1.411       .  A
C535        C540   1.417       .  A
C535       Br542   1.924       .  S
C536        C537   1.413       .  A
C537        C538   1.406       .  A
C537       Br544   1.915       .  S
C538        C539   1.402       .  A
C538       Br543   1.929       .  S
C539        C540   1.411       .  A
C540       Br541   1.928       .  S
C545        C546   1.409       .  A
C545        C550   1.417       .  A
C545       Br552   1.923       .  S
C546        C547   1.421       .  A
C547        C548   1.387       .  A
C547       Br554   1.938       .  S
C548        C549   1.396       .  A
C548       Br553   1.933       .  S
C549        C550   1.414       .  A
C550       Br551   1.920       .  S
C555        C556   1.421       .  A
C555        C560   1.406       .  A
C555       Br562   1.929       .  S
C556        C557   1.414       .  A
C557        C558   1.428       .  A
C557       Br564   1.926       .  S
C558        C559   1.424       .  A
C558       Br563   1.927       .  S
C559        C560   1.410       .  A
C560       Br561   1.939       .  S
C565        C566   1.408       .  A
C565        C570   1.398       .  A
C565       Br572   1.937       .  S
C566        C567   1.417       .  A
C567        C568   1.419       .  A
C567       Br574   1.929       .  S
C568        C569   1.412       .  A
C568       Br573   1.927       .  S
C569        C570   1.417       .  A
C570       Br571   1.932       .  S
C575        C576   1.395   1_655  A
C575        C580   1.396       .  A
C575       Br582   1.933       .  S
C576        C577   1.398       .  A
C577        C578   1.402       .  A
C577       Br584   1.911       .  S
C578        C579   1.417   1_455  A
C578       Br583   1.936       .  S
C579        C580   1.425       .  A
C580       Br581   1.936       .  S
C585        C586   1.418   1_565  A
C585        C590   1.417       .  A
C585       Br592   1.926       .  S
C586        C587   1.432       .  A
C587        C588   1.417   1_545  A
C587       Br594   1.937       .  S
C588        C589   1.407       .  A
C588       Br593   1.933       .  S
C589        C590   1.418       .  A
C590       Br591   1.936       .  S
C595        C596   1.421       .  A
C595        C600   1.413   1_455  A
C595       Br602   1.932       .  S
C596        C597   1.419   1_455  A
C597        C598   1.413       .  A
C597       Br604   1.934       .  S
C598        C599   1.413       .  A
C598       Br603   1.930       .  S
C599        C600   1.405       .  A
C600       Br601   1.928       .  S
C605        C606   1.395       .  A
C605        C610   1.400       .  A
C605       Br612   1.933       .  S
C606        C607   1.406       .  A
C607        C608   1.416       .  A
C607       Br614   1.915       .  S
C608        C609   1.414       .  A
C608      Br1237   1.924       .  S
C609        C820   1.497       .  S
C609        C610   1.417       .  A
C610       Br611   1.903       .  S
Br613      C1232   1.924   1_554  S
C615        C616   1.406       .  A
C615        C620   1.402       .  A
C615       Br622   1.929       .  S
C616        C617   1.412       .  A
C617        C618   1.397       .  A
C617       Br624   1.927       .  S
C618        C619   1.401       .  A
C618       Br623   1.932       .  S
C619        C620   1.405       .  A
C620       Br621   1.927       .  S
Fe625       O641   2.049       .  S
Fe625       O631   2.035       .  S
Fe625       O638   2.051       .  S
Fe625       O630   2.022       .  S
Fe625       O636   1.963       .  S
Fe626       O629   2.058       .  S
Fe626       O633   2.097       .  S
Fe626       O637   2.047       .  S
Fe626       O642   2.084       .  S
Fe626       O636   1.952       .  S
Fe627       O645   2.109       .  S
Fe627       O632   2.072       .  S
Fe627       O639   2.075       .  S
Fe627       O628   2.099       .  S
Fe627       O636   1.977       .  S
O628        C635   1.269       .  A
O629        C643   1.264       .  A
O630        C635   1.261       .  A
O631        C634   1.266       .  A
O632        C644   1.272       .  A
O633        C646   1.274       .  A
C634        O639   1.277       .  A
C634       C1240   1.457       .  S
C635       C1190   1.491       .  S
O637        C640   1.267       .  A
O638        C640   1.263       .  A
C640       C1200   1.457       .  S
O641        C646   1.265       .  A
O642        C644   1.276       .  A
C643        O645   1.275       .  A
C643       C1213   1.502       .  S
C644       C1230   1.475       .  S
C646       C1220   1.502       .  S
Fe647       O663   2.032       .  S
Fe647       O653   2.100       .  S
Fe647       O660   2.155       .  S
Fe647       O652   2.049       .  S
Fe647       O658   1.928       .  S
Fe648       O651   2.049       .  S
Fe648       O655   2.183       .  S
Fe648       O659   1.996       .  S
Fe648       O664   2.096       .  S
Fe648       O658   1.888       .  S
Fe649       O667   2.132       .  S
Fe649       O654   2.091       .  S
Fe649       O661   2.056       .  S
Fe649       O650   2.139       .  S
Fe649       O658   1.913       .  S
O650        C657   1.282       .  A
O651        C665   1.275       .  A
O652        C657   1.265       .  A
O653        C656   1.278       .  A
O654        C666   1.274       .  A
O655        C668   1.291       .  A
C656        O661   1.272       .  A
C656       C1150   1.499       .  S
C657       C1140   1.501       .  S
O659        C662   1.236       .  A
O660        C662   1.270       .  A
C662       C1170   1.482       .  S
O663        C668   1.262       .  A
O664        C666   1.275       .  A
C665        O667   1.287       .  A
C665       C1223   1.488       .  S
C666       C1160   1.493       .  S
C668       C1180   1.511       .  S
Fe669       O685   2.045       .  S
Fe669       O675   2.079       .  S
Fe669       O682   2.100       .  S
Fe669       O674   2.042       .  S
Fe669       O680   1.922       .  S
Fe670       O673   2.078       .  S
Fe670       O677   2.119       .  S
Fe670       O681   2.007       .  S
Fe670       O686   2.060       .  S
Fe670       O680   1.919       .  S
Fe671       O689   2.094       .  S
Fe671       O676   2.083       .  S
Fe671       O683   2.045       .  S
Fe671       O672   2.117       .  S
Fe671       O680   1.927       .  S
O672        C679   1.270       .  A
O673        C687   1.273       .  A
O674        C679   1.261       .  A
O675        C678   1.277       .  A
O676        C688   1.280       .  A
O677        C690   1.279       .  A
C678        O683   1.275       .  A
C678       C1123   1.480       .  S
C679       C1093   1.494       .  S
O681        C684   1.262       .  A
O682        C684   1.274       .  A
C684       C1103   1.463       .  S
O685        C690   1.262       .  A
O686        C688   1.270       .  A
C687        O689   1.274       .  A
C687       C1183   1.509       .  S
C688       C1110   1.499       .  S
C690       C1130   1.507       .  S
Fe691       O707   2.038       .  S
Fe691       O697   2.082       .  S
Fe691       O704   2.095       .  S
Fe691       O696   2.024       .  S
Fe691       O702   1.911       .  S
Fe692       O695   2.066       .  S
Fe692       O699   2.124       .  S
Fe692       O703   2.020       .  S
Fe692       O708   2.076       .  S
Fe692       O702   1.915       .  S
Fe693       O711   2.123       .  S
Fe693       O698   2.078       .  S
Fe693       O705   2.042       .  S
Fe693       O694   2.126       .  S
Fe693       O702   1.929       .  S
O694        C701   1.271       .  A
O695        C709   1.273       .  A
O696        C701   1.257       .  A
O697        C700   1.275       .  A
O698        C710   1.275       .  A
O699        C712   1.282       .  A
C700        O705   1.275       .  A
C701       C1060   1.497       .  S
O703        C706   1.259       .  A
O704        C706   1.272       .  A
C706       C1173   1.460       .  S
O707        C712   1.262       .  A
O708        C710   1.273       .  A
C709        O711   1.280       .  A
C709       C1070   1.499       .  S
C710       C1113   1.495       .  S
C712       C1080   1.496       .  S
Fe713       O729   2.045       .  S
Fe713       O719   2.085       .  S
Fe713       O718   2.042       .  S
Fe714       O717   2.081       .  S
Fe714       O721   2.114       .  S
Fe714       O725   2.044       .  S
Fe714       O730   2.103       .  S
Fe714       O724   1.940       .  S
Fe715       O727   2.053   1_554  S
Fe715       O716   2.106   1_554  S
O716        C723   1.269       .  A
O717        C731   1.266       .  A
O718        C723   1.255       .  A
O719        C722   1.278       .  A
O720        C732   1.278       .  A
C722        O727   1.274       .  A
C722       C1030   1.460       .  S
C723       C1063   1.490       .  S
O725        C728   1.270       .  A
O726        C728   1.271       .  A
C728       C1013   1.460       .  S
O729        C734   1.263       .  A
O730        C732   1.281       .  A
C731        O733   1.272       .  A
C731       C1040   1.519       .  S
C732       C1023   1.488       .  S
C734       C1050   1.515       .  S
Fe735       O751   2.038       .  S
Fe735       O741   2.104       .  S
Fe735       O748   2.101       .  S
Fe735       O740   2.042       .  S
Fe735       O746   1.918       .  S
Fe736       O739   2.070       .  S
Fe736       O743   2.147       .  S
Fe736       O747   2.004       .  S
Fe736       O752   2.107       .  S
Fe736       O746   1.908       .  S
Fe737       O755   2.100       .  S
Fe737       O742   2.078       .  S
Fe737       O749   2.043       .  S
Fe737       O738   2.122       .  S
Fe737       O746   1.933       .  S
O738        C745   1.269       .  A
O739        C753   1.271       .  A
O740        C745   1.252       .  A
O741        C744   1.282       .  A
O742        C754   1.278       .  A
O743        C756   1.285       .  A
C744        O749   1.275       .  A
C745        C970   1.503       .  S
O747        C750   1.259       .  A
O748        C750   1.270       .  A
C750        C983   1.465       .  S
O751        C756   1.264       .  A
O752        C754   1.281       .  A
C753        O755   1.278       .  A
C753       C1133   1.508       .  S
C754        C990   1.485       .  S
C756       C1043   1.507   1_655  S
Fe757       O773   2.030       .  S
Fe757       O763   2.097       .  S
Fe757       O770   2.130       .  S
Fe757       O762   2.035       .  S
Fe757       O768   1.936       .  S
Fe758       O761   2.047       .  S
Fe758       O765   2.163       .  S
Fe758       O769   1.998       .  S
Fe758       O774   2.098       .  S
Fe758       O768   1.896       .  S
Fe759       O777   2.137       .  S
Fe759       O764   2.080       .  S
Fe759       O771   2.047       .  S
Fe759       O760   2.132       .  S
Fe759       O768   1.927       .  S
O760        C767   1.277       .  A
O761        C775   1.270       .  A
O762        C767   1.263       .  A
O763        C766   1.281       .  A
O764        C776   1.273       .  A
O765        C778   1.287       .  A
C766        O771   1.274       .  A
C766        C963   1.464       .  S
C767        C933   1.504       .  S
O769        C772   1.242       .  A
O770        C772   1.272       .  A
C772        C940   1.467       .  S
O773        C778   1.261       .  A
O774        C776   1.277       .  A
C775        O777   1.286       .  A
C775       C1053   1.496       .  S
C778       C1210   1.525       .  S
Fe779       O795   2.037       .  S
Fe779       O785   2.106       .  S
Fe779       O792   2.130       .  S
Fe779       O784   2.057       .  S
Fe779       O790   1.944       .  S
Fe780       O783   2.063       .  S
Fe780       O787   2.143       .  S
Fe780       O791   1.987       .  S
Fe780       O796   2.107       .  S
Fe780       O790   1.907       .  S
Fe781       O799   2.101       .  S
Fe781       O786   2.087       .  S
Fe781       O793   2.046       .  S
Fe781       O782   2.104       .  S
Fe781       O790   1.928       .  S
O782        C789   1.271       .  A
O783        C797   1.268       .  A
O784        C789   1.263       .  A
O785        C788   1.282       .  A
O786        C798   1.277       .  A
O787        C800   1.284       .  A
C788        O793   1.275       .  A
C788       C1000   1.464       .  S
C789        C930   1.497       .  S
O791        C794   1.249       .  A
O792        C794   1.275       .  A
C794       C1100   1.479       .  S
O795        C800   1.263       .  A
O796        C798   1.279       .  A
C797        O799   1.277       .  A
C797        C920   1.515       .  S
C798        C993   1.494       .  S
C800       C1073   1.523       .  S
Fe801       O817   2.023       .  S
Fe801       O807   2.063       .  S
Fe801       O814   2.148       .  S
Fe801       O806   2.050       .  S
Fe801       O812   1.943       .  S
Fe802       O805   2.048       .  S
Fe802       O809   2.164       .  S
Fe802       O813   1.999       .  S
Fe802       O818   2.081       .  S
Fe802       O812   1.892       .  S
Fe803       O821   2.131       .  S
Fe803       O808   2.100       .  S
Fe803       O815   2.046       .  S
Fe803       O804   2.123       .  S
Fe803       O812   1.920       .  S
O804        C811   1.280       .  A
O805        C819   1.274       .  A
O806        C811   1.268       .  A
O807        C810   1.274       .  A
O808        C820   1.275       .  A
O809        C822   1.279       .  A
C810        O815   1.272       .  A
C810       C1243   1.450       .  S
C811       C1090   1.491       .  S
O813        C816   1.236       .  A
O814        C816   1.275       .  A
C816        C943   1.467       .  S
O817        C822   1.251       .  A
O818        C820   1.270       .  A
C819        O821   1.287       .  A
C819        C900   1.485       .  S
C822        C910   1.521       .  S
Fe823       O839   2.033       .  S
Fe823       O829   2.097       .  S
Fe823       O836   2.101       .  S
Fe823       O828   2.036       .  S
Fe823       O834   1.926       .  S
Fe824       O827   2.058       .  S
Fe824       O831   2.141       .  S
Fe824       O835   1.976       .  S
Fe824       O840   2.122       .  S
Fe824       O834   1.914       .  S
Fe825       O843   2.104       .  S
Fe825       O830   2.082       .  S
Fe825       O837   2.053       .  S
Fe825       O826   2.115       .  S
Fe825       O834   1.953       .  S
O826        C833   1.268       .  A
O827        C841   1.265       .  A
O828        C833   1.253       .  A
O829        C832   1.279       .  A
O830        C842   1.281       .  A
O831        C844   1.285       .  A
C832        O837   1.278       .  A
C832       C1033   1.461       .  S
C833       C1193   1.486       .  S
O835        C838   1.256       .  A
O836        C838   1.269       .  A
C838        C980   1.474       .  S
O839        C844   1.263       .  A
O840        C842   1.290       .  A
C841        O843   1.272       .  A
C841        C893   1.503       .  S
C842       C1020   1.503       .  S
C844        C923   1.505       .  S
Fe845       O861   2.063       .  S
Fe845       O851   2.119       .  S
Fe845       O850   2.043       .  S
Fe845       O856   1.910       .  S
Fe846       O849   2.059       .  S
Fe846       O857   2.022       .  S
Fe846       O862   2.123       .  S
Fe847       O865   2.090       .  S
Fe847       O859   2.036       .  S
Fe847       O848   2.113       .  S
Fe847       O856   1.944       .  S
O848        C855   1.262       .  A
O849        C863   1.258       .  A
O850        C855   1.248       .  A
O851        C854   1.286       .  A
O852        C864   1.280       .  A
O853        C866   1.278       .  A
C854        O859   1.276       .  A
C854       C1153   1.499       .  S
C855        C973   1.500       .  S
O857        C860   1.260       .  A
O858        C860   1.269       .  A
C860       C1203   1.476       .  S
O861        C866   1.272       .  A
O862        C864   1.290       .  A
C863       C1083   1.508       .  S
C864       C1163   1.481       .  S
C866        C903   1.491   1_655  S
Fe867       O883   2.047       .  S
Fe867       O873   2.083       .  S
Fe867       O880   2.152       .  S
Fe867       O872   2.040       .  S
Fe867       O878   1.940       .  S
Fe868       O871   2.035       .  S
Fe868       O875   2.136       .  S
Fe868       O879   1.999       .  S
Fe868       O884   2.069       .  S
Fe868       O878   1.904       .  S
Fe869       O887   2.140       .  S
Fe869       O874   2.087       .  S
Fe869       O881   2.059       .  S
Fe869       O870   2.120       .  S
Fe869       O878   1.922       .  S
O870        C877   1.278       .  A
O871        C885   1.274       .  A
O872        C877   1.269       .  A
O873        C876   1.278       .  A
O874        C886   1.267       .  A
O875        C888   1.280       .  A
C876        O881   1.275       .  A
C876        C960   1.466       .  S
C877       C1143   1.505       .  S
O879        C882   1.241       .  A
O880        C882   1.277       .  A
C882       C1010   1.482       .  S
O883        C888   1.261       .  A
O884        C886   1.264       .  A
C885        O887   1.291       .  A
C885        C913   1.487       .  S
C886        C950   1.478       .  S
C888        C890   1.494       .  S
C889        C890   1.413       .  A
C889        C894   1.421       .  A
C889       Br896   1.919       .  S
C890        C891   1.401       .  A
C891        C892   1.402       .  A
C891       Br898   1.924       .  S
C892        C893   1.418       .  A
C892       Br897   1.917       .  S
C893        C894   1.417       .  A
C894       Br895   1.929       .  S
C899        C900   1.412       .  A
C899        C904   1.410       .  A
C899       Br906   1.931       .  S
C900        C901   1.408       .  A
C901        C902   1.414       .  A
C901       Br908   1.928       .  S
C902        C903   1.414       .  A
C902       Br907   1.926   1_455  S
C903        C904   1.415       .  A
C909        C910   1.437   1_545  A
C909        C914   1.414       .  A
C909       Br916   1.936   1_545  S
C910        C911   1.421   1_565  A
C911        C912   1.414       .  A
C911       Br918   1.927       .  S
C912        C913   1.413       .  A
C912       Br917   1.935       .  S
C913        C914   1.400       .  A
C914       Br915   1.936       .  S
C919        C920   1.430       .  A
C919        C924   1.428   1_655  A
C919       Br926   1.930       .  S
C920        C921   1.416       .  A
C921        C922   1.400       .  A
C921       Br928   1.946       .  S
C922        C923   1.419   1_655  A
C922       Br927   1.932   1_655  S
C923        C924   1.411       .  A
C924       Br925   1.927       .  S
C929        C930   1.420       .  A
C929        C934   1.421       .  A
C929       Br936   1.927       .  S
C930        C931   1.419       .  A
C931        C932   1.403       .  A
C931       Br938   1.935       .  S
C932        C933   1.406       .  A
C932       Br937   1.927       .  S
C933        C934   1.411       .  A
C934       Br935   1.928       .  S
C939        C940   1.409       .  A
C939       Br946   1.941       .  S
C940        C941   1.411       .  A
C941       Br948   1.915       .  S
C942        C943   1.412       .  A
C942       Br947   1.925       .  S
C943        C944   1.418       .  A
C944       Br945   1.936       .  S
C949        C950   1.402       .  A
C949        C954   1.407       .  A
C949       Br956   1.931       .  S
C950        C951   1.413       .  A
C951        C952   1.412       .  A
C951       Br958   1.921       .  S
C952        C953   1.406       .  A
C953        C954   1.413       .  A
C954       Br955   1.915       .  S
C959        C960   1.402       .  A
C959        C964   1.397       .  A
C959       Br966   1.916       .  S
C960        C961   1.407       .  A
C961        C962   1.407       .  A
C961       Br968   1.920       .  S
C962        C963   1.409       .  A
C962       Br967   1.930       .  S
C963        C964   1.402       .  A
C964       Br965   1.916       .  S
C969        C970   1.422       .  A
C969        C974   1.404       .  A
C969       Br976   1.942       .  S
C970        C971   1.418       .  A
C971        C972   1.419       .  A
C971       Br978   1.931       .  S
C972        C973   1.418       .  A
C972       Br977   1.931       .  S
C973        C974   1.419       .  A
C974       Br975   1.945       .  S
C979        C980   1.414       .  A
C979        C984   1.422   1_455  A
C979       Br986   1.921       .  S
C980        C981   1.410       .  A
C981        C982   1.376       .  A
C981       Br988   1.936       .  S
C982        C983   1.401   1_455  A
C982       Br987   1.938       .  S
C983        C984   1.414       .  A
C984       Br985   1.922       .  S
C989        C990   1.413       .  A
C989        C994   1.415       .  A
C989       Br996   1.925       .  S
C990        C991   1.406       .  A
C991        C992   1.410       .  A
C991       Br998   1.932       .  S
C992        C993   1.413       .  A
C992       Br997   1.917       .  S
C993        C994   1.410       .  A
C994       Br995   1.926       .  S
C999       C1000   1.407       .  A
C999       C1004   1.404       .  A
C999      Br1006   1.932       .  S
C1000      C1001   1.408       .  A
C1001      C1002   1.403       .  A
C1001     Br1008   1.924       .  S
C1002      C1003   1.405       .  A
C1003      C1004   1.408       .  A
C1004     Br1005   1.929       .  S
C1009      C1010   1.424       .  A
C1009      C1014   1.384       .  A
C1009     Br1016   1.943       .  S
C1010      C1011   1.413       .  A
C1011      C1012   1.417       .  A
C1011     Br1018   1.922       .  S
C1012      C1013   1.408       .  A
C1012     Br1017   1.917       .  S
C1013      C1014   1.389       .  A
C1014     Br1015   1.924       .  S
C1019      C1020   1.408       .  A
C1019      C1024   1.399       .  A
C1019     Br1026   1.908       .  S
C1020      C1021   1.418       .  A
C1021      C1022   1.422       .  A
C1021     Br1028   1.929       .  S
C1022      C1023   1.413       .  A
C1022     Br1027   1.919       .  S
C1023      C1024   1.403       .  A
C1024     Br1025   1.925       .  S
C1029      C1030   1.406       .  A
C1029      C1034   1.405       .  A
C1029     Br1036   1.930       .  S
C1030      C1031   1.407       .  A
C1031      C1032   1.401       .  A
C1031     Br1038   1.927       .  S
C1032      C1033   1.406       .  A
C1032     Br1037   1.930       .  S
C1033      C1034   1.409       .  A
C1034     Br1035   1.929       .  S
C1039      C1040   1.428       .  A
C1039      C1044   1.426       .  A
C1040      C1041   1.418       .  A
C1041      C1042   1.406       .  A
C1041     Br1048   1.942       .  S
C1042      C1043   1.420       .  A
C1042     Br1047   1.936       .  S
C1043      C1044   1.412       .  A
C1044     Br1045   1.929   1_455  S
C1049      C1050   1.420       .  A
C1049      C1054   1.418       .  A
C1050      C1051   1.425       .  A
C1051      C1052   1.414       .  A
C1051     Br1058   1.933       .  S
C1052      C1053   1.405       .  A
C1052     Br1057   1.930       .  S
C1053      C1054   1.417       .  A
C1054     Br1055   1.933       .  S
C1059      C1060   1.422       .  A
C1059      C1064   1.420       .  A
C1060      C1061   1.408       .  A
C1061      C1062   1.402       .  A
C1061     Br1068   1.933       .  S
C1062      C1063   1.416       .  A
C1062     Br1067   1.930       .  S
C1063      C1064   1.409       .  A
C1069      C1070   1.404       .  A
C1069      C1074   1.416   1_565  A
C1069     Br1076   1.928       .  S
C1070      C1071   1.414       .  A
C1071      C1072   1.420       .  A
C1071     Br1078   1.927       .  S
C1072      C1073   1.421   1_565  A
C1072     Br1077   1.929   1_565  S
C1073      C1074   1.430       .  A
C1074     Br1075   1.936       .  S
C1079      C1080   1.420       .  A
C1079      C1084   1.405       .  A
C1079     Br1086   1.940       .  S
C1080      C1081   1.409       .  A
C1081      C1082   1.419       .  A
C1081     Br1088   1.931       .  S
C1082      C1083   1.428       .  A
C1083      C1084   1.417       .  A
C1084     Br1085   1.941   1_556  S
C1089      C1090   1.418       .  A
C1089      C1094   1.407       .  A
C1089     Br1096   1.922       .  S
C1090      C1091   1.407       .  A
C1091      C1092   1.417       .  A
C1091     Br1098   1.930       .  S
C1092      C1093   1.420       .  A
C1092     Br1097   1.923       .  S
C1093      C1094   1.405       .  A
C1094     Br1095   1.932       .  S
C1099      C1100   1.413       .  A
C1099      C1104   1.420   1_545  A
C1099     Br1106   1.923       .  S
C1100      C1101   1.418       .  A
C1101      C1102   1.383       .  A
C1101     Br1108   1.941       .  S
C1102      C1103   1.399   1_545  A
C1102     Br1107   1.936       .  S
C1103      C1104   1.413       .  A
C1104     Br1105   1.919       .  S
C1109      C1110   1.424       .  A
C1109      C1114   1.422       .  A
C1109     Br1116   1.933       .  S
C1110      C1111   1.424       .  A
C1111      C1112   1.384       .  A
C1111     Br1118   1.947       .  S
C1112      C1113   1.408       .  A
C1112     Br1117   1.939       .  S
C1113      C1114   1.419       .  A
C1114     Br1115   1.932       .  S
C1119      C1120   1.424       .  A
C1119      C1124   1.403       .  A
C1119     Br1126   1.943       .  S
C1120      C1121   1.415       .  A
C1121      C1122   1.398       .  A
C1122      C1123   1.418       .  A
C1122     Br1127   1.939       .  S
C1123      C1124   1.414       .  A
C1124     Br1125   1.941       .  S
C1129      C1130   1.416   1_545  A
C1129      C1134   1.423       .  A
C1129     Br1136   1.931   1_545  S
C1130      C1131   1.424   1_565  A
C1131      C1132   1.405       .  A
C1131     Br1138   1.941       .  S
C1132      C1133   1.413       .  A
C1132     Br1137   1.940       .  S
C1133      C1134   1.424       .  A
C1134     Br1135   1.931       .  S
C1139      C1140   1.420       .  A
C1139      C1144   1.403       .  A
C1139     Br1146   1.927       .  S
C1140      C1141   1.417       .  A
C1141      C1142   1.422       .  A
C1141     Br1148   1.926       .  S
C1142      C1143   1.416       .  A
C1142     Br1147   1.926       .  S
C1143      C1144   1.409       .  A
C1144     Br1145   1.939       .  S
C1149      C1150   1.424       .  A
C1149      C1154   1.415       .  A
C1149     Br1156   1.940       .  S
C1150      C1151   1.418       .  A
C1151      C1152   1.398       .  A
C1151     Br1158   1.939       .  S
C1152      C1153   1.417       .  A
C1152     Br1157   1.943       .  S
C1153      C1154   1.423       .  A
C1154     Br1155   1.940       .  S
C1159      C1160   1.411       .  A
C1159      C1164   1.417       .  A
C1159     Br1166   1.924       .  S
C1160      C1161   1.413       .  A
C1161      C1162   1.406       .  A
C1161     Br1168   1.915       .  S
C1162      C1163   1.402       .  A
C1162     Br1167   1.929       .  S
C1163      C1164   1.411       .  A
C1164     Br1165   1.928       .  S
C1169      C1170   1.409       .  A
C1169      C1174   1.417       .  A
C1169     Br1176   1.923       .  S
C1170      C1171   1.421       .  A
C1171      C1172   1.387       .  A
C1171     Br1178   1.938       .  S
C1172      C1173   1.396       .  A
C1172     Br1177   1.933       .  S
C1173      C1174   1.414       .  A
C1174     Br1175   1.920       .  S
C1179      C1180   1.421       .  A
C1179      C1184   1.406       .  A
C1179     Br1186   1.929       .  S
C1180      C1181   1.414       .  A
C1181      C1182   1.428       .  A
C1181     Br1188   1.926       .  S
C1182      C1183   1.424       .  A
C1182     Br1187   1.927       .  S
C1183      C1184   1.410       .  A
C1184     Br1185   1.939       .  S
C1189      C1190   1.408       .  A
C1189      C1194   1.398       .  A
C1189     Br1196   1.937       .  S
C1190      C1191   1.417       .  A
C1191      C1192   1.419       .  A
C1191     Br1198   1.929       .  S
C1192      C1193   1.412       .  A
C1192     Br1197   1.927       .  S
C1193      C1194   1.417       .  A
C1194     Br1195   1.932       .  S
C1199      C1200   1.395   1_655  A
C1199      C1204   1.396       .  A
C1199     Br1206   1.933       .  S
C1200      C1201   1.398       .  A
C1201      C1202   1.402       .  A
C1201     Br1208   1.911       .  S
C1202      C1203   1.417   1_455  A
C1202     Br1207   1.935       .  S
C1203      C1204   1.425       .  A
C1204     Br1205   1.936       .  S
C1209      C1210   1.418   1_565  A
C1209      C1214   1.417       .  A
C1209     Br1216   1.926       .  S
C1210      C1211   1.432       .  A
C1211      C1212   1.417   1_545  A
C1211     Br1218   1.937       .  S
C1212      C1213   1.407       .  A
C1212     Br1217   1.933       .  S
C1213      C1214   1.418       .  A
C1214     Br1215   1.936       .  S
C1219      C1220   1.421       .  A
C1219      C1224   1.413   1_455  A
C1219     Br1226   1.932       .  S
C1220      C1221   1.419   1_455  A
C1221      C1222   1.413       .  A
C1221     Br1228   1.934       .  S
C1222      C1223   1.413       .  A
C1222     Br1227   1.930       .  S
C1223      C1224   1.405       .  A
C1224     Br1225   1.928       .  S
C1229      C1230   1.396       .  A
C1229      C1234   1.400       .  A
C1229     Br1236   1.933       .  S
C1230      C1231   1.406       .  A
C1231      C1232   1.416       .  A
C1231     Br1238   1.915       .  S
C1232      C1233   1.414       .  A
C1233      C1234   1.417       .  A
C1234     Br1235   1.903       .  S
C1239      C1240   1.406       .  A
C1239      C1244   1.402       .  A
C1239     Br1246   1.929       .  S
C1240      C1241   1.412       .  A
C1241      C1242   1.397       .  A
C1241     Br1248   1.927       .  S
C1242      C1243   1.401       .  A
C1242     Br1247   1.932       .  S
C1243      C1244   1.405       .  A
C1244     Br1245   1.927       .  S
