geometry optimzed in LAMMPS
_audit_creation_date              2020-12-01 
_audit_creation_method            'lammps2cif' 
_symmetry_space_group_name_H-M    'P1' 
_symmetry_Int_Tables_number       1 
_symmetry_cell_setting            triclinic 
loop_ 
_symmetry_equiv_pos_as_xyz 
  x,y,z 
_cell_length_a                    45.58842597 
_cell_length_b                    45.66354131534855 
_cell_length_c                    46.9560870154526 
_cell_angle_alpha                 90.0879426677101 
_cell_angle_beta                  89.87547989208181 
_cell_angle_gamma                 119.7318757122631 
loop_ 
_atom_site_label 
_atom_site_type_symbol 
_atom_site_fract_x 
_atom_site_fract_y 
_atom_site_fract_z 
_atom_site_charge 
O1          O  0.44767049  0.09950890  0.07379033    -0.84100
O2          O  0.47512448  0.15472750  0.11039112    -0.81100
C3          C  0.47675010  0.17459230  0.12980472     0.99400
O4          O  0.45025564  0.17346288  0.13914061    -0.81200
O5          O  0.41500909  0.18094232  0.09505492    -0.83800
C6          C  0.39928801  0.17462776  0.07185000     1.03900
O7          O  0.38086217  0.14434420  0.06347083    -0.76600
O8          O  0.42402742  0.12194074  0.04873650    -0.76800
C9          C  0.44833058  0.11670676  0.05257751     1.03900
O10         O  0.40331814  0.05996504  0.11868227    -0.84100
O11         O  0.43546209  0.11213770  0.15555706    -0.81100
C12         C  0.41206353  0.11162531  0.17019273     0.99400
O13         O  0.39051816  0.11780264  0.15907898    -0.81200
O14         O  0.35347972  0.12860545  0.11896480    -0.83800
C15         C  0.33159643  0.09955269  0.11070291     1.03900
O16         O  0.33957667  0.08229624  0.09488395    -0.76600
O17         O  0.37836141  0.05530143  0.07765600    -0.76700
C18         C  0.38215007  0.04177288  0.10011733     1.03800
Cr19       Cr  0.43814407  0.10744754  0.11360169     1.93700
Cr20       Cr  0.40258919  0.14802868  0.12611846     1.93200
Cr21       Cr  0.38267648  0.10200516  0.07328963     1.39100
O22         O  0.40749120  0.11898383  0.10444094    -1.21800
O23         O  0.34907297  0.38586334  0.40710939    -0.84100
O24         O  0.31734847  0.35496539  0.35703140    -0.81100
C25         C  0.29543089  0.32478914  0.36236085     0.99400
O26         O  0.27241066  0.31824920  0.38038734    -0.81200
O27         O  0.23076952  0.33092039  0.41669763    -0.83800
C28         C  0.24166324  0.33618774  0.44194005     1.03900
O29         O  0.26917588  0.36186818  0.44815237    -0.76600
O30         O  0.33418010  0.40995965  0.44061946    -0.76800
C31         C  0.35026967  0.39512025  0.43263662     1.03900
O32         O  0.35211189  0.44701329  0.38852233    -0.84100
O33         O  0.31127648  0.41139700  0.34198657    -0.81100
C34         C  0.28628613  0.38880758  0.32827236     0.99400
O35         O  0.26684492  0.36058749  0.33922712    -0.81200
O36         O  0.23296541  0.37740454  0.37484532    -0.83800
C37         C  0.22810032  0.39371320  0.39390211     1.03900
O38         O  0.24398801  0.40036245  0.41739129    -0.76600
O39         O  0.30929544  0.44890909  0.40687124    -0.76700
C40         C  0.33744587  0.46349716  0.39444666     1.03800
Cr41       Cr  0.32965015  0.39880218  0.37530768     1.93700
Cr42       Cr  0.25377094  0.34940865  0.37950390     1.93200
Cr43       Cr  0.28953117  0.40400305  0.42581221     1.39100
O44         O  0.29096322  0.38375084  0.39392831    -1.21800
O45         O  0.40230499  0.35454970  0.25173962    -0.84100
O46         O  0.34302410  0.31916914  0.28272282    -0.81100
C47         C  0.32008673  0.29668499  0.29788801     0.99400
O48         O  0.31887538  0.26875516  0.30169426    -0.81200
O49         O  0.31690001  0.23993590  0.24829948    -0.83800
C50         C  0.32711329  0.23506687  0.22467438     1.03900
O51         O  0.35844727  0.24837823  0.21945971    -0.76600
O52         O  0.38278482  0.31731598  0.21737299    -0.76800
C53         C  0.38977121  0.34587193  0.22722711     1.03900
O54         O  0.43594297  0.33564119  0.29222799    -0.84100
O55         O  0.37918086  0.30633344  0.32554931    -0.81100
C56         C  0.37747636  0.27954352  0.33468139     0.99400
O57         O  0.37050805  0.25520432  0.31823804    -0.81200
O58         O  0.36469504  0.22205209  0.26858069    -0.83800
C59         C  0.39573858  0.23184824  0.26604708     1.03900
O60         O  0.41549762  0.26001896  0.25484795    -0.76600
O61         O  0.44397174  0.32824825  0.24732162    -0.76700
C62         C  0.45565368  0.33953807  0.27186901     1.03800
Cr63       Cr  0.38921271  0.32615757  0.28661744     1.93700
Cr64       Cr  0.34501502  0.24940692  0.28285496     1.93200
Cr65       Cr  0.39864694  0.28847437  0.23683265     1.39100
O66         O  0.37760267  0.28800102  0.26874865    -1.21800
O67         O  0.04763982  0.40841128  0.33592310    -0.84100
O68         O  0.02097501  0.34914054  0.36635056    -0.81100
C69         C  0.01906838  0.32501493  0.38072594     0.99400
O70         O  0.04497722  0.32217065  0.38476604    -0.81200
O71         O  0.07363633  0.32047005  0.33172017    -0.83800
C72         C  0.08930791  0.33126917  0.30838506     1.03900
O73         O  0.10835994  0.36245868  0.30428670    -0.76600
O74         O  0.06382248  0.38660585  0.30219748    -0.76800
C75         C  0.04233350  0.39374315  0.31218153     1.03900
O76         O  0.09995987  0.43911692  0.37755972    -0.84100
O77         O  0.06936369  0.38258737  0.41037117    -0.81100
C78         C  0.09392418  0.37989049  0.41962560     0.99400
O79         O  0.11045652  0.37162641  0.40327647    -0.81200
O80         O  0.13892901  0.36647076  0.35445375    -0.83800
C81         C  0.16059623  0.39737469  0.35209411     1.03900
O82         O  0.15291183  0.41767389  0.34051723    -0.76600
O83         O  0.11364837  0.44731409  0.33237617    -0.76700
C84         C  0.11662950  0.45844575  0.35747271     1.03800
Cr85       Cr  0.06116957  0.39395328  0.37119099     1.93700
Cr86       Cr  0.09138010  0.34736242  0.36724597     1.93200
Cr87       Cr  0.10816676  0.40210597  0.32185608     1.39100
O88         O  0.08687655  0.38098403  0.35344860    -1.21800
O89         O  0.14098101  0.11183353  0.16503959    -0.84100
O90         O  0.16592796  0.13603432  0.11158566    -0.81100
C91         C  0.18956128  0.16611875  0.11434951     0.99400
O92         O  0.21472674  0.17296251  0.12971511    -0.81200
O93         O  0.25809700  0.16259203  0.16411126    -0.83800
C94         C  0.24889455  0.16198079  0.18971201     1.03900
O95         O  0.22161294  0.13767640  0.19876040    -0.76600
O96         O  0.15597696  0.08665595  0.19716278    -0.76800
C97         C  0.14041790  0.10222906  0.19024579     1.03900
O98         O  0.13388845  0.04810755  0.15033312    -0.84100
O99         O  0.16585206  0.07542227  0.09905663    -0.81100
C100        C  0.18807314  0.09539663  0.08188292     0.99400
O101        O  0.21158373  0.12376145  0.09022311    -0.81200
O102        O  0.24914618  0.10930498  0.12556772    -0.83800
C103        C  0.25824418  0.09912908  0.14675767     1.03900
O104        O  0.24486117  0.09679530  0.17093454    -0.76600
O105        O  0.17851748  0.04627297  0.16406430    -0.76700
C106        C  0.14920298  0.03172120  0.15361353     1.03800
Cr107      Cr  0.15447127  0.09390279  0.13278480     1.93700
Cr108      Cr  0.23082316  0.13991711  0.12906527     1.93200
Cr109      Cr  0.19964739  0.09268638  0.18042439     1.39100
O110        O  0.19508268  0.10918819  0.14762927    -1.21800
O111        O  0.15008648  0.02823637  0.41577109    -0.84100
O112        O  0.17166667  0.02360842  0.46951286    -0.81100
C113        C  0.19836959  0.02194443  0.46742311     0.99400
O114        O  0.22367201  0.04434529  0.45451271    -0.81200
O115        O  0.26261454  0.10119175  0.42282313    -0.83800
C116        C  0.25417172  0.09530150  0.39672007     1.03900
O117        O  0.22670605  0.09255108  0.38803089    -0.76600
O118        O  0.15884388  0.07163691  0.38952201    -0.76800
C119        C  0.14673453  0.04001940  0.39262955     1.03900
O120        O  0.13292939  0.07697350  0.43676173    -0.84100
O121        O  0.16101929  0.07607097  0.48731338    -0.81100
C122        C  0.20301145  0.10113783  0.00218581     0.99400
O123        O  0.21142571  0.08279653  0.49649871    -0.81200
O124        O  0.24801265  0.13916293  0.46558683    -0.83800
C125        C  0.25608043  0.16037492  0.44599642     1.03900
O126        O  0.24315230  0.15110430  0.42147786    -0.76600
O127        O  0.17462035  0.12774259  0.42964800    -0.76700
C128        C  0.14529698  0.10842441  0.43918024     1.03800
Cr129      Cr  0.15676246  0.05325919  0.45116956     1.93700
Cr130      Cr  0.23377935  0.09147570  0.45822190     1.93200
Cr131      Cr  0.20035453  0.10912528  0.40926406     1.39100
O132        O  0.19727771  0.08451076  0.43951314    -1.21800
O133        O  0.02933292  0.15119798  0.24503678    -0.84100
O134        O  0.03154179  0.17666620  0.19136348    -0.81100
C135        C  0.02601085  0.20105909  0.19409205     0.99400
O136        O  0.04500687  0.22612016  0.20924824    -0.81200
O137        O  0.09763192  0.26673937  0.24545444    -0.83800
C138        C  0.08814379  0.25649565  0.27077286     1.03900
O139        O  0.08552806  0.22926557  0.27932750    -0.76600
O140        O  0.06897954  0.16358716  0.27710020    -0.76800
C141        C  0.03787741  0.14929702  0.27013770     1.03900
O142        O  0.08488639  0.14112240  0.23072973    -0.84100
O143        O  0.09114464  0.17380061  0.17997531    -0.81100
C144        C  0.09490063  0.19664572  0.16292141     0.99400
O145        O  0.09084336  0.22090331  0.17096755    -0.81200
O146        O  0.14231133  0.25702051  0.20640464    -0.83800
C147        C  0.16170439  0.26519831  0.22736693     1.03900
O148        O  0.15023945  0.25186486  0.25157534    -0.76600
O149        O  0.13196238  0.18474568  0.24438702    -0.76700
C150        C  0.11642228  0.15523160  0.23457688     1.03800
Cr151      Cr  0.06101485  0.16349733  0.21304800     1.93700
Cr152      Cr  0.09360051  0.24015652  0.20972949     1.93200
Cr153      Cr  0.10786183  0.20698883  0.26078279     1.39100
O154        O  0.08722293  0.20369118  0.22802925    -1.21800
O155        O  0.35794938  0.44809599  0.15942677    -0.84100
O156        O  0.32827393  0.47865348  0.19177607    -0.81100
C157        C  0.30730778  0.48085976  0.20811524     0.99400
O158        O  0.27939667  0.45521378  0.21401199    -0.81200
O159        O  0.24076039  0.41871529  0.16679142    -0.83800
C160        C  0.23502705  0.40260313  0.14357911     1.03900
O161        O  0.24816961  0.38449197  0.13870100    -0.76600
O162        O  0.31584695  0.42934075  0.13005223    -0.76800
C163        C  0.34559415  0.45153091  0.13673414     1.03900
O164        O  0.34474870  0.40240778  0.20431203    -0.84100
O165        O  0.32371379  0.43779989  0.23748070    -0.81100
C166        C  0.29894308  0.41603453  0.25121135     0.99400
O167        O  0.27149123  0.39598520  0.23888424    -0.81200
O168        O  0.22919046  0.35812346  0.19559384    -0.83800
C169        C  0.23666269  0.33571739  0.18933578     1.03900
O170        O  0.26277965  0.34283277  0.17462728    -0.76600
O171        O  0.33075247  0.38125464  0.16129040    -0.76700
C172        C  0.34470725  0.38307038  0.18505032     1.03800
Cr173      Cr  0.33541078  0.43950420  0.19697639     1.93700
Cr174      Cr  0.25799319  0.40730847  0.20198835     1.93200
Cr175      Cr  0.28998738  0.38651125  0.15342343     1.39100
O176        O  0.29417326  0.41084032  0.18434817    -1.21800
O177        O  0.11809524  0.15578127  0.50398873    -0.84100
O178        O  0.14558657  0.17518249  0.03220027    -0.81100
C179        C  0.16676309  0.19573161  0.04954621     0.99400
O180        O  0.16766855  0.22322592  0.05475672    -0.81200
O181        O  0.17546644  0.25467013  0.00201792    -0.83800
C182        C  0.16617264  0.27089605  0.48476588     1.03900
O183        O  0.13425709  0.25623020  0.48141019    -0.76600
O184        O  0.11692739  0.19141952  0.47324365    -0.76800
C185        C  0.12183519  0.16726913  0.47892797     1.03900
O186        O  0.05224104  0.15794309  0.03693292    -0.84100
O187        O  0.10532758  0.18554392  0.07394283    -0.81100
C188        C  0.10711116  0.21232588  0.08357512     0.99400
O189        O  0.11591356  0.23766358  0.06797487    -0.81200
O190        O  0.12866129  0.27522575  0.02024470    -0.83800
C191        C  0.09813245  0.26713232  0.01708727     1.03900
O192        O  0.07664511  0.23465868  0.52071727    -0.76600
O193        O  0.05654636  0.16834744  0.50978758    -0.76700
C194        C  0.03443738  0.15715454  0.01616741     1.03800
Cr195      Cr  0.09931693  0.16825897  0.03386684     1.93700
Cr196      Cr  0.14473082  0.24493937  0.03472131     1.93200
Cr197      Cr  0.09772750  0.21264045  0.49840070     1.39100
O198        O  0.11259647  0.20791738  0.01813657    -1.21800
O199        O  0.11277524  0.46766246  0.07900506    -0.84100
O200        O  0.13737741  0.46741065  0.02539512    -0.81100
C201        C  0.16796274  0.47497224  0.02842957     0.99400
O202        O  0.17556483  0.45686968  0.04342863    -0.81200
O203        O  0.16668724  0.40326564  0.07830774    -0.83800
C204        C  0.16506779  0.41076027  0.10418048     1.03900
O205        O  0.14034445  0.41328003  0.11282321    -0.76600
O206        O  0.08964770  0.42783847  0.11166616    -0.76800
C207        C  0.10434608  0.45882733  0.10447762     1.03900
O208        O  0.04902784  0.41003608  0.06488125    -0.84100
O209        O  0.07678889  0.40493630  0.01435614    -0.81100
C210        C  0.09315931  0.39888662  0.49847717     0.99400
O211        O  0.12647813  0.41074968  0.00415520    -0.81200
O212        O  0.11371898  0.35939185  0.03866659    -0.83800
C213        C  0.10214166  0.33902510  0.05893444     1.03900
O214        O  0.09988502  0.34911030  0.08369338    -0.76600
O215        O  0.04926706  0.36476271  0.07894124    -0.76700
C216        C  0.03340849  0.37862100  0.06942179     1.03800
Cr217      Cr  0.09520332  0.43589385  0.04708056     1.93700
Cr218      Cr  0.14343440  0.40786884  0.04295032     1.93200
Cr219      Cr  0.09571997  0.39023793  0.09446472     1.39100
O220        O  0.11193421  0.41175267  0.06184352    -1.21800
O221        O  0.37949358  0.03416673  0.32569888    -0.84100
O222        O  0.35002535  0.03611673  0.27493709    -0.81100
C223        C  0.31974829  0.02829036  0.27969144     0.99400
O224        O  0.31296772  0.04451708  0.29777144    -0.81200
O225        O  0.32421485  0.09810183  0.33382622    -0.83800
C226        C  0.32978294  0.09490712  0.35963632     1.03900
O227        O  0.35607186  0.09426761  0.36683398    -0.76600
O228        O  0.40198894  0.07248358  0.35994152    -0.76800
C229        C  0.38883398  0.04203150  0.35117992     1.03900
O230        O  0.44118669  0.09017452  0.30838197    -0.84100
O231        O  0.40787969  0.09770718  0.26150177    -0.81100
C232        C  0.38596754  0.10056803  0.24717309     0.99400
O233        O  0.35744840  0.09261526  0.25741285    -0.81200
O234        O  0.37250010  0.14242183  0.29290444    -0.83800
C235        C  0.39151767  0.16399662  0.31061408     1.03900
O236        O  0.39825920  0.15539193  0.33432877    -0.76600
O237        O  0.44425954  0.13538448  0.32618546    -0.76700
C238        C  0.45839145  0.12106452  0.31418824     1.03800
Cr239      Cr  0.39343001  0.06649239  0.29432174     1.93700
Cr240      Cr  0.34440193  0.09395944  0.29732783     1.93200
Cr241      Cr  0.39863383  0.11245153  0.34440219     1.39100
O242        O  0.37834682  0.09061184  0.31258051    -1.21800
O243        O  0.46507243  0.35153844  0.49216537    -0.84100
O244        O  0.46021928  0.32220961  0.43962471    -0.81100
C245        C  0.46636545  0.29834452  0.44314400     0.99400
O246        O  0.44859338  0.27448556  0.45984460    -0.81200
O247        O  0.39607389  0.23460305  0.49674616    -0.83800
C248        C  0.39393438  0.22948269  0.01184578     1.03900
O249        O  0.40058694  0.25690692  0.02382957    -0.76600
O250        O  0.42351138  0.32470648  0.02989902    -0.76800
C251        C  0.45498486  0.34006509  0.02435667     1.03900
O252        O  0.40932673  0.36079765  0.47813290    -0.84100
O253        O  0.39994461  0.32388563  0.42924161    -0.81100
C254        C  0.39528828  0.29994988  0.41305550     0.99400
O255        O  0.40111910  0.27701570  0.42145417    -0.81200
O256        O  0.35115317  0.24257244  0.45844129    -0.83800
C257        C  0.33208333  0.23590945  0.47957179     1.03900
O258        O  0.34200193  0.24747565  0.99275474    -0.76600
O259        O  0.36549758  0.31562142  0.99415823    -0.76700
C260        C  0.37798044  0.34718878  0.48238498     1.03800
Cr261      Cr  0.43185948  0.33671221  0.46123584     1.93700
Cr262      Cr  0.39981237  0.26001516  0.46082184     1.93200
Cr263      Cr  0.38473798  0.28716201  0.00792957     1.39100
O264        O  0.40647314  0.29733804  0.47807314    -1.21800
C265        C  0.48056149  0.35352955  0.04748593    -0.15200
C266        C  0.99737789  0.35731769  0.06147166    -0.30300
H267        H  0.47704092  0.33810768  0.06615267     0.13900
H268        H  0.98666136  0.33014279  0.06285404     0.14400
C269        C  0.08756612  0.29120462  0.02669576    -0.15200
C270        C  0.09509425  0.30429602  0.05332471    -0.30300
H271        H  0.07945716  0.30266408  0.01053816     0.13900
H272        H  0.10188340  0.29195142  0.06970249     0.14400
C273        C  0.21237252  0.40335020  0.12126270    -0.15200
C274        C  0.19097497  0.41509608  0.12549740    -0.30300
H275        H  0.21166274  0.39142838  0.10101979     0.13900
H276        H  0.19034377  0.42550286  0.14617266     0.14400
C277        C  0.31843744  0.51124040  0.22560763    -0.15200
C278        C  0.29418343  0.00366113  0.26023479    -0.30300
H279        H  0.34234431  0.53315601  0.21973592     0.13900
H280        H  0.27436362  0.98004241  0.26895842     0.14400
C281        C  0.21226987  0.30058076  0.19776690    -0.15200
C282        C  0.19666704  0.29359393  0.22351625    -0.30300
H283        H  0.20293392  0.28150581  0.18115441     0.13900
H284        H  0.20714381  0.31214508  0.24051294     0.14400
C285        C  0.10164362  0.19381672  0.13293892    -0.15200
C286        C  0.10088492  0.21497417  0.11362065    -0.30300
H287        H  0.10632491  0.17360446  0.12652894     0.13900
H288        H  0.09683188  0.23557346  0.12008062     0.14400
C289        C  0.49439602  0.14112780  0.30514334    -0.15200
C290        C  0.01063997  0.12866059  0.29045747    -0.30300
H291        H  0.50643944  0.16854387  0.30670659     0.13900
H292        H  0.99974331  0.10147803  0.28915949     0.14400
C293        C  0.28361953  0.19536721  0.45080831    -0.15200
C294        C  0.29703922  0.20741291  0.47683432    -0.30300
H295        H  0.29603894  0.21011702  0.43193345     0.13900
H296        H  0.28419655  0.19358250  0.49594708     0.14400
C297        C  0.30589075  0.09339429  0.38194341    -0.15200
C298        C  0.27697903  0.09310078  0.37534073    -0.30300
H299        H  0.31287661  0.09396861  0.40412811     0.13900
H300        H  0.26985639  0.09186920  0.35310915     0.14400
C301        C  0.13421219  0.15359062  0.45622655    -0.15200
C302        C  0.12673593  0.12126117  0.45621034    -0.30300
H303        H  0.15145073  0.17091134  0.44036619     0.13900
H304        H  0.10800044  0.10382999  0.47117798     0.14400
C305        C  0.20050173  0.99623625  0.48425324    -0.15200
C306        C  0.19367164  0.50351590  0.01196585    -0.30300
H307        H  0.18000321  0.46764066  0.47503235     0.13900
H308        H  0.20177709  0.02438315  0.02477479     0.14400
C309        C  0.13394865  0.99659788  0.14303318    -0.15200
C310        C  0.11140936  0.48566295  0.12528658    -0.30300
H311        H  0.14840150  0.98363512  0.14512036     0.13900
H312        H  0.09623601  0.49790318  0.12380626     0.16800
C313        C  0.20545261  0.10990497  0.03222912    -0.15200
C314        C  0.18546589  0.08689244  0.05148762    -0.30300
H315        H  0.22509532  0.13485455  0.03867235     0.13900
H316        H  0.16636141  0.06184435  0.04462108     0.14400
C317        C  0.18536203  0.18440356  0.06744189    -0.15200
C318        C  0.18927899  0.19144528  0.09552305    -0.30300
H319        H  0.18776823  0.16331877  0.05945732     0.13900
H320        H  0.18557831  0.21125314  0.10464627     0.14400
C321        C  0.12068840  0.10920733  0.21110471    -0.15200
C322        C  0.13553653  0.13848227  0.22551718    -0.30300
H323        H  0.09340904  0.09540861  0.20869773     0.13900
H324        H  0.16296666  0.15319350  0.22623690     0.14400
C325        C  0.08810780  0.30820950  0.28586112    -0.15200
C326        C  0.08169121  0.27689544  0.29160098    -0.30300
H327        H  0.09712449  0.31877369  0.26481659     0.13900
H328        H  0.07419816  0.26690804  0.31302279     0.14400
C329        C  0.49175492  0.29746831  0.42446640    -0.15200
C330        C  0.98792522  0.30440076  0.39683139    -0.30300
H331        H  0.51500840  0.30093746  0.43389433     0.13900
H332        H  0.96533155  0.30393432  0.38874114     0.14400
C333        C  0.14148194  0.49325205  0.36436386    -0.15200
C334        C  0.12599106  0.01556092  0.37077088    -0.30300
H335        H  0.16386367  0.49641065  0.37534680     0.13900
H336        H  0.09883310  0.00292675  0.37411105     0.14400
C337        C  0.10293322  0.38581747  0.44985533    -0.15200
C338        C  0.08321365  0.39011669  0.46868283    -0.30300
H339        H  0.12628817  0.38703936  0.45665645     0.13900
H340        H  0.05960756  0.38834164  0.46187224     0.14400
C341        C  0.40737572  0.20884050  0.27558887    -0.15200
C342        C  0.40353409  0.19949016  0.30325482    -0.30300
H343        H  0.40896722  0.19264123  0.25939028     0.13900
H344        H  0.40229067  0.21570849  0.31959411     0.14400
C345        C  0.30299679  0.21190789  0.20328456    -0.15200
C346        C  0.27094470  0.18889439  0.20985161    -0.30300
H347        H  0.31290460  0.21156587  0.18229447     0.13900
H348        H  0.26145528  0.18818217  0.23123213     0.14400
C349        C  0.00951239  0.38342458  0.29849028    -0.15200
C350        C  0.49259779  0.35722484  0.27703615    -0.30300
H351        H  0.99319562  0.39081906  0.30955040     0.13900
H352        H  0.50819729  0.34952226  0.26528705     0.14400
C353        C  0.38297955  0.27666779  0.36491127    -0.15200
C354        C  0.38554856  0.30016390  0.38352546    -0.30300
H355        H  0.38576059  0.25546967  0.37181719     0.13900
H356        H  0.38217547  0.32101871  0.37662850     0.14400
C357        C  0.38248988  0.36988651  0.21212311    -0.15200
C358        C  0.36014622  0.36169061  0.19082760    -0.30300
H359        H  0.39193650  0.39432228  0.22234293     0.13900
H360        H  0.35041528  0.33767579  0.17989454     0.14400
C361        C  0.19520761  0.40829830  0.36162364    -0.15200
C362        C  0.20112364  0.40190861  0.38849577    -0.30300
H363        H  0.21432326  0.41486418  0.34522596     0.13900
H364        H  0.18245170  0.39625989  0.40512622     0.14400
C365        C  0.22126512  0.31295118  0.46480264    -0.15200
C366        C  0.18800564  0.29186229  0.46144122    -0.30300
H367        H  0.23314206  0.31500349  0.48530835     0.13900
H368        H  0.17597612  0.29112181  0.44128934     0.14400
C369        C  0.29501171  0.29889607  0.34347106    -0.15200
C370        C  0.29925805  0.30595919  0.31528586    -0.30300
H371        H  0.29887230  0.27922453  0.35259713     0.13900
H372        H  0.29640551  0.32676394  0.30728697     0.14400
C373        C  0.37188614  0.38889104  0.45253087    -0.15200
C374        C  0.35850452  0.36329969  0.47162349    -0.30300
H375        H  0.39819502  0.39963535  0.44663824     0.13900
H376        H  0.33160420  0.35057255  0.47569275     0.14400
C377        C  0.35184203  0.49925348  0.38526640    -0.15200
C378        C  0.38453427  0.01438761  0.37011996    -0.30300
H379        H  0.33534307  0.51008409  0.38628581     0.13900
H380        H  0.39291170  0.99754257  0.36177200     0.14400
C381        C  0.30363421  0.41541094  0.28190879    -0.15200
C382        C  0.27958527  0.39304929  0.29866388    -0.30300
H383        H  0.32829871  0.43289263  0.29071555     0.13900
H384        H  0.25527239  0.37486317  0.28972197     0.14400
C385        C  0.29609929  0.08760304  0.11783848    -0.15200
C386        C  0.28761954  0.09428932  0.14351294    -0.30300
H387        H  0.27782238  0.07820994  0.10059475     0.13900
H388        H  0.30541319  0.10195208  0.16108776     0.14400
C389        C  0.40191192  0.20347007  0.05536028    -0.15200
C390        C  0.39206824  0.20082586  0.02813382    -0.30300
H391        H  0.41286861  0.22783063  0.06591781     0.13900
H392        H  0.38234571  0.17676919  0.01723726     0.14400
C393        C  0.99756637  0.14013142  0.01986810    -0.15200
C394        C  0.47871497  0.13253052  0.03378764    -0.30300
H395        H  0.98530877  0.15510613  0.01676336     0.13900
H396        H  0.48027065  0.14952363  0.01695163     0.14400
C397        C  0.99905470  0.20059052  0.17679513    -0.15200
C398        C  0.50785456  0.19275071  0.14637063    -0.30300
H399        H  0.97363808  0.18565321  0.18529606     0.13900
H400        H  0.53011691  0.19251103  0.13826635     0.14400
C401        C  0.36686982  0.48312116  0.12073106    -0.15200
C402        C  0.36070681  0.00460978  0.10597817    -0.30300
H403        H  0.39267204  0.49799295  0.12845144     0.13900
H404        H  0.33683814  0.99029459  0.09488788     0.14400
C405        C  0.39140599  0.11105895  0.21764079    -0.15200
C406        C  0.41122484  0.10513519  0.20064114    -0.30300
H407        H  0.37560902  0.12051779  0.20893297     0.13900
H408        H  0.42668050  0.09516593  0.20910213     0.14400
O409        O  0.44685807  0.09450191  0.57416062    -0.84100
O410        O  0.46998329  0.14845618  0.61040741    -0.81100
C411        C  0.47083169  0.16958389  0.62804712     0.99400
O412        O  0.44434429  0.17088856  0.63318700    -0.81200
O413        O  0.41556326  0.17573461  0.58082692    -0.83800
C414        C  0.39893037  0.16636805  0.55784674     1.03900
O415        O  0.37887445  0.13538937  0.55298802    -0.76600
O416        O  0.42184994  0.11145230  0.54395055    -0.76800
C417        C  0.44698525  0.10847640  0.55076417     1.03900
O418        O  0.39600675  0.05422590  0.61634483    -0.84100
O419        O  0.42188881  0.10760574  0.65341809    -0.81100
C420        C  0.39771087  0.11028588  0.66410389     0.99400
O421        O  0.38027838  0.11872551  0.64917472    -0.81200
O422        O  0.35067603  0.12799837  0.60297856    -0.83800
C423        C  0.32878491  0.09726616  0.60020308     1.03900
O424        O  0.33628125  0.07715859  0.58808201    -0.76600
O425        O  0.37479568  0.04833674  0.57356794    -0.76700
C426        C  0.37722748  0.03552197  0.59671239     1.03800
Cr427      Cr  0.43157519  0.10193047  0.61235894     1.93700
Cr428      Cr  0.39840365  0.14618835  0.61488772     1.93200
Cr429      Cr  0.37969915  0.09430532  0.56688872     1.39100
O430        O  0.40326846  0.11399353  0.59810418    -1.21800
O431        O  0.35402988  0.38456343  0.90719251    -0.84100
O432        O  0.32201154  0.35318555  0.85753749    -0.81100
C433        C  0.30073991  0.32267762  0.86283457     0.99400
O434        O  0.27734347  0.31517838  0.88059668    -0.81200
O435        O  0.23468411  0.32550907  0.91638829    -0.83800
C436        C  0.24569303  0.32852958  0.94145098     1.03900
O437        O  0.27310532  0.35386021  0.94851964    -0.76600
O438        O  0.33706927  0.40509354  0.94209059    -0.76800
C439        C  0.35454124  0.39214095  0.93312726     1.03900
O440        O  0.35265113  0.44429172  0.89016475    -0.84100
O441        O  0.31317129  0.40894058  0.84353774    -0.81100
C442        C  0.28896060  0.38616093  0.82938574     0.99400
O443        O  0.27106566  0.35719066  0.83960039    -0.81200
O444        O  0.23658444  0.37288577  0.87608752    -0.83800
C445        C  0.23043824  0.38699602  0.89627171     1.03900
O446        O  0.24521371  0.39149307  0.92011613    -0.76600
O447        O  0.30876817  0.44253459  0.91020953    -0.76700
C448        C  0.33591531  0.45860158  0.89651941     1.03800
Cr449      Cr  0.33283836  0.39661626  0.87616506     1.93700
Cr450      Cr  0.25774761  0.34520846  0.87981221     1.93200
Cr451      Cr  0.29159990  0.39724552  0.92786566     1.39100
O452        O  0.29420148  0.37937061  0.89503340    -1.21800
O453        O  0.39663446  0.35536572  0.74439986    -0.84100
O454        O  0.34328299  0.31781436  0.77985340    -0.81100
C455        C  0.32407707  0.29612797  0.79753463     0.99400
O456        O  0.32763795  0.27120362  0.80308772    -0.81200
O457        O  0.32505423  0.24151837  0.75008630    -0.83800
C458        C  0.33516066  0.23650059  0.72644152     1.03900
O459        O  0.36645866  0.24989459  0.72079106    -0.76600
O460        O  0.38686316  0.31618668  0.71281334    -0.76800
C461        C  0.38610111  0.34251914  0.72001065     1.03900
O462        O  0.44043300  0.34917771  0.78582041    -0.84100
O463        O  0.38864131  0.31606610  0.82217626    -0.81100
C464        C  0.39117660  0.29148632  0.83190139     0.99400
O465        O  0.38444510  0.26613432  0.81678305    -0.81200
O466        O  0.37596319  0.22848628  0.76931925    -0.83800
C467        C  0.40719887  0.23952412  0.76797437     1.03900
O468        O  0.42600211  0.26772925  0.75633963    -0.76600
O469        O  0.45040218  0.33468444  0.74398165    -0.76700
C470        C  0.46095948  0.34988929  0.76753451     1.03800
Cr471      Cr  0.39175821  0.33188978  0.78170372     1.93700
Cr472      Cr  0.35529831  0.25478494  0.78330752     1.93200
Cr473      Cr  0.40609748  0.29241239  0.73559895     1.39100
O474        O  0.38458420  0.29334766  0.76676918    -1.21800
O475        O  0.03415747  0.38420786  0.83243682    -0.84100
O476        O  0.03114941  0.36123548  0.88698329    -0.81100
C477        C  0.02246357  0.33041767  0.88435527     0.99400
O478        O  0.04028569  0.32169519  0.87014266    -0.81200
O479        O  0.09458889  0.32756575  0.83816609    -0.83800
C480        C  0.09093280  0.33044335  0.81168967     1.03900
O481        O  0.09107499  0.35606871  0.80195659    -0.76600
O482        O  0.07545109  0.40535809  0.80085080    -0.76800
C483        C  0.04403069  0.38996872  0.80687736     1.03900
O484        O  0.09136815  0.44781385  0.84697723    -0.84100
O485        O  0.09395061  0.42043768  0.89883569    -0.81100
C486        C  0.09478031  0.40043102  0.91684064     0.99400
O487        O  0.08599706  0.37024186  0.91024892    -0.81200
O488        O  0.13820258  0.37926083  0.87809485    -0.83800
C489        C  0.15996435  0.39171189  0.85880180     1.03900
O490        O  0.15209952  0.39607251  0.83390164    -0.76600
O491        O  0.13703715  0.44655911  0.83648244    -0.76700
C492        C  0.12309187  0.46283938  0.84471571     1.03800
Cr493      Cr  0.06433456  0.40221466  0.86524154     1.93700
Cr494      Cr  0.08961654  0.35198039  0.87227052     1.93200
Cr495      Cr  0.11223271  0.40024350  0.82060096     1.39100
O496        O  0.08843872  0.38428488  0.85233578    -1.21800
O497        O  0.14861707  0.11948888  0.66370016    -0.84100
O498        O  0.17849082  0.15048761  0.61286993    -0.81100
C499        C  0.20285288  0.17979482  0.61800523     0.99400
O500        O  0.22738389  0.18378124  0.63310389    -0.81200
O501        O  0.26724916  0.16652084  0.66579193    -0.83800
C502        C  0.25726057  0.16469381  0.69119176     1.03900
O503        O  0.22916632  0.14073779  0.69898861    -0.76600
O504        O  0.16274611  0.09249920  0.69483959    -0.76800
C505        C  0.14688669  0.10793227  0.68837115     1.03900
O506        O  0.14097706  0.05675677  0.64342223    -0.84100
O507        O  0.17718411  0.08982279  0.59565613    -0.81100
C508        C  0.20197654  0.11008319  0.58069871     0.99400
O509        O  0.22395250  0.13815768  0.59034753    -0.81200
O510        O  0.25633172  0.11655950  0.62341674    -0.83800
C511        C  0.26286928  0.10204674  0.64292090     1.03900
O512        O  0.25018731  0.09916309  0.66757853    -0.76600
O513        O  0.18353560  0.05250588  0.65973484    -0.76700
C514        C  0.15486719  0.03918874  0.64826723     1.03800
Cr515      Cr  0.16411706  0.10509175  0.63026442     1.93700
Cr516      Cr  0.24092166  0.14892878  0.62984583     1.93200
Cr517      Cr  0.20604034  0.09755692  0.67800646     1.39100
O518        O  0.20360918  0.11752721  0.64639145    -1.21800
O519        O  0.14183905  0.03274138  0.92600915    -0.84100
O520        O  0.17444372  0.03640540  0.97549023    -0.81100
C521        C  0.19565853  0.02712237  0.96966677     0.99400
O522        O  0.21947058  0.04367997  0.95233661    -0.81200
O523        O  0.26114424  0.09594088  0.91418960    -0.83800
C524        C  0.25095179  0.08945714  0.88864306     1.03900
O525        O  0.22249691  0.08552099  0.88204087    -0.76600
O526        O  0.15622979  0.06782832  0.88955132    -0.76800
C527        C  0.13943564  0.03832224  0.90017494     1.03900
O528        O  0.13892710  0.09140196  0.94030410    -0.84100
O529        O  0.17924063  0.09941611  0.98728888    -0.81100
C530        C  0.18430656  0.08181112  0.50448959     0.99400
O531        O  0.22392851  0.09340950  0.99194896    -0.81200
O532        O  0.25735895  0.14220418  0.95333432    -0.83800
C533        C  0.26157789  0.16144803  0.93274524     1.03900
O534        O  0.24558894  0.15007514  0.90955690    -0.76600
O535        O  0.18039996  0.13387693  0.91870872    -0.76700
C536        C  0.15274560  0.12147564  0.93175232     1.03800
Cr537      Cr  0.16167057  0.06689167  0.95554785     1.93700
Cr538      Cr  0.23751386  0.09328432  0.95133575     1.93200
Cr539      Cr  0.20077992  0.10770885  0.90261739     1.39100
O540        O  0.20000449  0.08900967  0.93610388    -1.21800
O541        O  0.03062325  0.14696177  0.74973826    -0.84100
O542        O  0.03295803  0.17233368  0.69529005    -0.81100
C543        C  0.02649938  0.19614949  0.69785821     0.99400
O544        O  0.04411524  0.22054805  0.71418432    -0.81200
O545        O  0.09616937  0.26246975  0.75106676    -0.83800
C546        C  0.08962346  0.25356925  0.77700250     1.03900
O547        O  0.08727591  0.22640751  0.78557182    -0.76600
O548        O  0.07031902  0.16036875  0.78218153    -0.76800
C549        C  0.03930557  0.14536347  0.77490334     1.03900
O550        O  0.08673963  0.13808120  0.73607310    -0.84100
O551        O  0.09376610  0.17105828  0.68579302    -0.81100
C552        C  0.09843732  0.19450824  0.66916470     0.99400
O553        O  0.09236840  0.21762459  0.67684754    -0.81200
O554        O  0.14248245  0.25559914  0.71265060    -0.83800
C555        C  0.16186470  0.26361677  0.73364678     1.03900
O556        O  0.15090972  0.24892582  0.75741756    -0.76600
O557        O  0.13347479  0.18209994  0.74934891    -0.76700
C558        C  0.11840255  0.15280428  0.73906123     1.03800
Cr559      Cr  0.06265829  0.15998289  0.71807865     1.93700
Cr560      Cr  0.09330836  0.23643740  0.71539371     1.93200
Cr561      Cr  0.10901078  0.20386408  0.76622876     1.39100
O562        O  0.08800547  0.20032150  0.73353073    -1.21800
O563        O  0.35051321  0.46018171  0.66323091    -0.84100
O564        O  0.31247743  0.48238676  0.69314148    -0.81100
C565        C  0.29186511  0.48267579  0.71090370     0.99400
O566        O  0.26729471  0.45526182  0.71924322    -0.81200
O567        O  0.23276318  0.41619274  0.67160602    -0.83800
C568        C  0.22851364  0.39946085  0.64894094     1.03900
O569        O  0.24390713  0.38285966  0.64519516    -0.76600
O570        O  0.30978929  0.42758109  0.63461578    -0.76800
C571        C  0.33659203  0.45496921  0.63919238     1.03900
O572        O  0.34684231  0.42078018  0.71130449    -0.84100
O573        O  0.31550672  0.44701180  0.74209112    -0.81100
C574        C  0.29372000  0.42180514  0.75569153     0.99400
O575        O  0.26734632  0.39920594  0.74356672    -0.81200
O576        O  0.22520488  0.35823263  0.70122151    -0.83800
C577        C  0.23534400  0.33739745  0.69742812     1.03900
O578        O  0.26329871  0.34642347  0.68527134    -0.76600
O579        O  0.33101496  0.38819667  0.67338106    -0.76700
C580        C  0.34816365  0.39861945  0.69634814     1.03800
Cr581      Cr  0.32814452  0.44981631  0.70117349     1.93700
Cr582      Cr  0.25111434  0.40782496  0.70719946     1.93200
Cr583      Cr  0.28752748  0.38843758  0.66172128     1.39100
O584        O  0.28897793  0.41509901  0.69001436    -1.21800
O585        O  0.08995315  0.14282158  0.99735075    -0.84100
O586        O  0.17188591  0.19898323  0.53622036    -0.81100
C587        C  0.18921298  0.21923837  0.55533630     0.99400
O588        O  0.18331754  0.24254062  0.56187574    -0.81200
O589        O  0.17898551  0.26858454  0.50795988    -0.83800
C590        C  0.16729766  0.26046414  0.97789087     1.03900
O591        O  0.13678234  0.25076505  0.97181490    -0.76600
O592        O  0.10996047  0.18287365  0.96517529    -0.76800
C593        C  0.10280621  0.15363721  0.97315182     1.03900
O594        O  0.07429076  0.15476447  0.54837709    -0.84100
O595        O  0.12598513  0.19496934  0.58195846    -0.81100
C596        C  0.12047096  0.21773674  0.59199322     0.99400
O597        O  0.12416876  0.24225260  0.57718750    -0.81200
O598        O  0.12599737  0.27766340  0.53033613    -0.83800
C599        C  0.09429373  0.26429123  0.52987649     1.03900
O600        O  0.07803073  0.23975880  0.00482286    -0.76600
O601        O  0.04788473  0.17176344  0.99298975    -0.76700
C602        C  0.05072428  0.15118519  0.53246921     1.03800
Cr603      Cr  0.12274423  0.17874874  0.54144778     1.93700
Cr604      Cr  0.15136116  0.25489401  0.54278434     1.93200
Cr605      Cr  0.09437236  0.21106940  0.98589162     1.39100
O606        O  0.12337023  0.21491867  0.52752357    -1.21800
O607        O  0.11150233  0.46845083  0.57800235    -0.84100
O608        O  0.13625882  0.46353337  0.52575374    -0.81100
C609        C  0.16604914  0.46898493  0.52946968     0.99400
O610        O  0.17167520  0.45015933  0.54543503    -0.81200
O611        O  0.15865026  0.39747325  0.58313932    -0.83800
C612        C  0.15763387  0.40663908  0.60853514     1.03900
O613        O  0.13409147  0.41190247  0.61623266    -0.76600
O614        O  0.08569356  0.43085557  0.61182971    -0.76800
C615        C  0.10238608  0.46142760  0.60358581     1.03900
O616        O  0.04597884  0.41223893  0.56344527    -0.84100
O617        O  0.07404283  0.40369996  0.51479325    -0.81100
C618        C  0.09666066  0.40279597  0.99696504     0.99400
O619        O  0.12148080  0.40354702  0.50709979    -0.81200
O620        O  0.10449124  0.35357966  0.54478420    -0.83800
C621        C  0.09277957  0.33512745  0.56627826     1.03900
O622        O  0.09066406  0.34746749  0.58992368    -0.76600
O623        O  0.04266691  0.36656693  0.58086840    -0.76700
C624        C  0.02873871  0.38097282  0.56850497     1.03800
Cr625      Cr  0.09299185  0.43519959  0.54699985     1.93700
Cr626      Cr  0.13687482  0.40181188  0.54679053     1.93200
Cr627      Cr  0.08924058  0.39063374  0.59731530     1.39100
O628        O  0.10685338  0.40961948  0.56400532    -1.21800
O629        O  0.37641664  0.03355971  0.82454978    -0.84100
O630        O  0.35843872  0.03975870  0.76963396    -0.81100
C631        C  0.32854876  0.03453033  0.76988842     0.99400
O632        O  0.32032232  0.05104761  0.78639201    -0.81200
O633        O  0.32820235  0.10201422  0.82447459    -0.83800
C634        C  0.32894527  0.09430843  0.85043444     1.03900
O635        O  0.35301709  0.09104136  0.85967961    -0.76600
O636        O  0.40013464  0.07102873  0.85890510    -0.76800
C637        C  0.38454801  0.04047126  0.85031936     1.03900
O638        O  0.44289356  0.08889309  0.81454173    -0.84100
O639        O  0.42071955  0.09874513  0.76241002    -0.81100
C640        C  0.40245186  0.10272706  0.74446752     0.99400
O641        O  0.37405913  0.09938813  0.75164715    -0.81200
O642        O  0.38525306  0.14816313  0.78841973    -0.83800
C643        C  0.39822217  0.16728400  0.80932997     1.03900
O644        O  0.39861544  0.15532877  0.83363048    -0.76600
O645        O  0.44557447  0.13535741  0.82881940    -0.76700
C646        C  0.46001239  0.12019618  0.81905952     1.03800
Cr647      Cr  0.39841668  0.06702231  0.79421731     1.93700
Cr648      Cr  0.35396841  0.09965105  0.78967305     1.93200
Cr649      Cr  0.39838246  0.11171724  0.84282592     1.39100
O650        O  0.38305753  0.09252977  0.80912908    -1.21800
O651        O  0.46538057  0.34360156  0.99902631    -0.84100
O652        O  0.46813876  0.32158302  0.94549940    -0.81100
C653        C  0.47073020  0.29525442  0.94724444     0.99400
O654        O  0.44759048  0.26850950  0.95808713    -0.81200
O655        O  0.38739970  0.22539726  0.98556326    -0.83800
C656        C  0.40450448  0.24451567  0.52217523     1.03900
O657        O  0.40787631  0.27230000  0.53040082    -0.76600
O658        O  0.42706213  0.33912125  0.52605210    -0.76800
C659        C  0.45776925  0.35405720  0.51761632     1.03900
O660        O  0.41364679  0.35839596  0.98109221    -0.84100
O661        O  0.41251240  0.33096674  0.92918390    -0.81100
C662        C  0.40916568  0.30953864  0.91076522     0.99400
O663        O  0.41196498  0.28435896  0.91761564    -0.81200
O664        O  0.35381242  0.24796529  0.94739089    -0.83800
C665        C  0.33268457  0.23780297  0.96736084     1.03900
O666        O  0.34361334  0.25125222  0.50306139    -0.76600
O667        O  0.36289638  0.31858640  0.49416660    -0.76700
C668        C  0.38204389  0.34503653  0.98405849     1.03800
Cr669      Cr  0.43770325  0.33551932  0.96474548     1.93700
Cr670      Cr  0.40074300  0.25931041  0.95413737     1.93200
Cr671      Cr  0.38674052  0.29574662  0.51106222     1.39100
O672        O  0.40807960  0.29400544  0.97596732    -1.21800
C673        C  0.48610645  0.37643028  0.53651893    -0.15200
C674        C  0.99312429  0.36049600  0.55820080    -0.30300
H675        H  0.50185956  0.40225495  0.52933861     0.13900
H676        H  0.97983055  0.33364240  0.56284175     0.14400
C677        C  0.07915832  0.28493840  0.53802997    -0.15200
C678        C  0.08594977  0.30012106  0.56373595    -0.30300
H679        H  0.07040910  0.29447993  0.52076893     0.13900
H680        H  0.09398206  0.29013073  0.58117799     0.14400
C681        C  0.20475656  0.39816278  0.62640610    -0.15200
C682        C  0.18326588  0.41023446  0.63012356    -0.30300
H683        H  0.20406478  0.38566507  0.60650837     0.13900
H684        H  0.18309943  0.42159893  0.65042687     0.14400
C685        C  0.30144936  0.51345709  0.72749859    -0.15200
C686        C  0.30549568  0.01185120  0.74802642    -0.30300
H687        H  0.32358528  0.53628945  0.72003433     0.13900
H688        H  0.28167682  0.99059365  0.75489024     0.14400
C689        C  0.21210921  0.30174174  0.70503331    -0.15200
C690        C  0.19622748  0.29319428  0.73056356    -0.30300
H691        H  0.20340018  0.28342393  0.68782223     0.13900
H692        H  0.20589167  0.31106298  0.74809996     0.14400
C693        C  0.10915305  0.19407736  0.63999149    -0.15200
C694        C  0.11093236  0.21709238  0.62152936    -0.30300
H695        H  0.11486960  0.17459085  0.63350669     0.13900
H696        H  0.10518121  0.23650743  0.62821874     0.14400
C697        C  0.49584026  0.13983911  0.81035080    -0.15200
C698        C  0.01236569  0.12422756  0.79501374    -0.30300
H699        H  0.50824397  0.16712806  0.81228869     0.13900
H700        H  0.99796486  0.09751939  0.78997695     0.14400
C701        C  0.28784839  0.19709262  0.93564425    -0.15200
C702        C  0.29792867  0.21076119  0.96177863    -0.30300
H703        H  0.30225844  0.21015789  0.91680768     0.13900
H704        H  0.28250450  0.19785772  0.98025713     0.14400
C705        C  0.30325596  0.09097954  0.87174230    -0.15200
C706        C  0.27331861  0.08863368  0.86575243    -0.30300
H707        H  0.30994768  0.09103309  0.89395807     0.13900
H708        H  0.26572633  0.08758115  0.84369021     0.14400
C709        C  0.11023761  0.13126953  0.95557458    -0.15200
C710        C  0.13764606  0.14290597  0.93871624    -0.30300
H711        H  0.09689073  0.10472297  0.96134694     0.13900
H712        H  0.15212733  0.16966359  0.93384115     0.14400
C713        C  0.19291416  0.99843837  0.98585500    -0.15200
C714        C  0.19315987  0.49613747  0.51281202    -0.30300
H715        H  0.18703919  0.47482477  0.97480828     0.13900
H716        H  0.21220697  0.02553629  0.52147129     0.14400
C717        C  0.13894983  0.00347655  0.63895209    -0.15200
C718        C  0.11125465  0.48982467  0.62338176    -0.30300
H719        H  0.15320335  0.99045500  0.64217738     0.13900
H720        H  0.09512711  0.50107502  0.62378876     0.16800
C721        C  0.17931747  0.08652513  0.53439539    -0.15200
C722        C  0.20582471  0.10214438  0.55156104    -0.30300
H723        H  0.15401483  0.07901226  0.54202937     0.13900
H724        H  0.23134981  0.11226751  0.54331519     0.14400
C725        C  0.20904814  0.20997714  0.57416603    -0.15200
C726        C  0.20390288  0.20828691  0.60258321    -0.30300
H727        H  0.21882973  0.19475628  0.56475994     0.13900
H728        H  0.19117883  0.22059903  0.61224035     0.14400
C729        C  0.12499077  0.11211380  0.70910917    -0.15200
C730        C  0.13817996  0.13737950  0.72821818    -0.30300
H731        H  0.09839037  0.10056863  0.70368779     0.13900
H732        H  0.16533133  0.15093792  0.73165998     0.14400
C733        C  0.08847197  0.30504773  0.79088687    -0.15200
C734        C  0.08682395  0.27595428  0.79830028    -0.30300
H735        H  0.08962184  0.31141030  0.76846023     0.13900
H736        H  0.08516088  0.26918738  0.82065688     0.14400
C737        C  0.49957317  0.29584533  0.93316461    -0.15200
C738        C  0.99344140  0.30594177  0.90095159    -0.30300
H739        H  0.52400305  0.31291499  0.94259413     0.13900
H740        H  0.96871721  0.30000888  0.89295770     0.14400
C741        C  0.14443255  0.49802721  0.85466936    -0.15200
C742        C  0.11587542  0.00881510  0.88338340    -0.30300
H743        H  0.17083004  0.50610556  0.85887355     0.13900
H744        H  0.09194789  0.99197121  0.89369861     0.14400
C745        C  0.10461424  0.41156039  0.94608015    -0.15200
C746        C  0.08585057  0.39252714  0.96774699    -0.30300
H747        H  0.12692434  0.43602986  0.94995321     0.13900
H748        H  0.06173046  0.36975820  0.96390049     0.14400
C749        C  0.41976096  0.21762560  0.77896581    -0.15200
C750        C  0.40941882  0.20333379  0.80498971    -0.30300
H751        H  0.42852294  0.20613501  0.76331607     0.13900
H752        H  0.40156450  0.21539082  0.82086920     0.14400
C753        C  0.31104111  0.21342558  0.70537057    -0.15200
C754        C  0.27932397  0.19000971  0.71218343    -0.30300
H755        H  0.32062402  0.21408018  0.68402901     0.13900
H756        H  0.27005128  0.18835217  0.73379525     0.14400
C757        C  0.01792704  0.37697733  0.78428385    -0.15200
C758        C  0.49746899  0.36665310  0.77517213    -0.30300
H759        H  0.02160045  0.36549803  0.76534355     0.13900
H760        H  0.51371869  0.35934728  0.76396191     0.14400
C761        C  0.40021947  0.29091056  0.86155178    -0.15200
C762        C  0.40277111  0.31373127  0.88088216    -0.30300
H763        H  0.40342796  0.26976891  0.86788284     0.13900
H764        H  0.39928172  0.33477453  0.87487508     0.14400
C765        C  0.37068768  0.35739742  0.70055769    -0.15200
C766        C  0.37040105  0.38589521  0.70786797    -0.30300
H767        H  0.35625373  0.34289384  0.68225589     0.13900
H768        H  0.38503310  0.39951451  0.72644667     0.14400
C769        C  0.19413923  0.39797632  0.86507067    -0.15200
C770        C  0.20358339  0.39541135  0.89182593    -0.30300
H771        H  0.21004678  0.40000703  0.84702467     0.13900
H772        H  0.18872053  0.39493566  0.91014259     0.14400
C773        C  0.22462645  0.30345673  0.96298878    -0.15200
C774        C  0.19275975  0.28027774  0.95648681    -0.30300
H775        H  0.23371200  0.30635224  0.98475676     0.13900
H776        H  0.18347190  0.27869014  0.93491165     0.14400
C777        C  0.30076964  0.29730545  0.84388609    -0.15200
C778        C  0.30278438  0.30378772  0.81570147    -0.30300
H779        H  0.30704462  0.27909608  0.85264975     0.13900
H780        H  0.29753823  0.32317953  0.80798389     0.14400
C781        C  0.37653251  0.38566765  0.95244349    -0.15200
C782        C  0.36377592  0.36255288  0.97361350    -0.30300
H783        H  0.40185778  0.39354214  0.94474955     0.13900
H784        H  0.33729140  0.35181613  0.97927620     0.14400
C785        C  0.34618087  0.49302450  0.88579663    -0.15200
C786        C  0.37769082  0.01204617  0.86936241    -0.30300
H787        H  0.32675466  0.50021819  0.88475838     0.13900
H788        H  0.39317834  0.00033755  0.86626693     0.14400
C789        C  0.30010170  0.41953766  0.78588964    -0.15200
C790        C  0.28109521  0.39136313  0.80038728    -0.30300
H791        H  0.32206819  0.44044557  0.79577465     0.13900
H792        H  0.25959932  0.37028637  0.79013113     0.14400
C793        C  0.29425628  0.08650764  0.60967094    -0.15200
C794        C  0.28849855  0.09220224  0.63678938    -0.30300
H795        H  0.27571444  0.08178826  0.59319434     0.13900
H796        H  0.30668856  0.09610032  0.65335872     0.14400
C797        C  0.40065522  0.19084593  0.53652180    -0.15200
C798        C  0.40891272  0.22268730  0.54301021    -0.30300
H799        H  0.39134385  0.18112962  0.51533010     0.13900
H800        H  0.41662045  0.23201937  0.56455390     0.14400
C801        C  0.01638206  0.12705303  0.54271962    -0.15200
C802        C  0.47777338  0.12371813  0.53228311    -0.30300
H803        H  0.01552322  0.11262365  0.56142718     0.13900
H804        H  0.47867344  0.13866073  0.51398878     0.14400
C805        C  0.00092023  0.19655582  0.67883551    -0.15200
C806        C  0.50107539  0.18770699  0.64608583    -0.30300
H807        H  0.97593310  0.18855584  0.68743267     0.13900
H808        H  0.52326281  0.18651313  0.63914880     0.14400
C809        C  0.35076225  0.48269956  0.61759164    -0.15200
C810        C  0.35706560  0.99840699  0.60163346    -0.30300
H811        H  0.33427678  0.48316140  0.60115414     0.13900
H812        H  0.33185239  0.98427889  0.59270197     0.14400
C813        C  0.41243254  0.10807019  0.71429534    -0.15200
C814        C  0.38998247  0.10516816  0.69448489    -0.30300
H815        H  0.43752087  0.11307650  0.70820908     0.13900
H816        H  0.36511592  0.10061118  0.70084078     0.14400
O817        O  0.44601151  0.58983246  0.08170525    -0.84100
O818        O  0.46887847  0.64600427  0.11581405    -0.81100
C819        C  0.46888672  0.66889597  0.13074502     0.99400
O820        O  0.44247045  0.67087578  0.13381970    -0.81200
O821        O  0.41811709  0.67678452  0.08039577    -0.83800
C822        C  0.40381892  0.66782256  0.05639583     1.03900
O823        O  0.38579196  0.63682345  0.05035611    -0.76600
O824        O  0.43025191  0.61216033  0.04813497    -0.76800
C825        C  0.45186244  0.60527205  0.05826360     1.03900
O826        O  0.39090417  0.55377531  0.12028241    -0.84100
O827        O  0.41720415  0.60835016  0.15675582    -0.81100
C828        C  0.39297052  0.61202342  0.16561179     0.99400
O829        O  0.37684294  0.62022401  0.14875943    -0.81200
O830        O  0.35201686  0.62916183  0.09888886    -0.83800
C831        C  0.33049504  0.59849231  0.09561844     1.03900
O832        O  0.33865067  0.57869286  0.08364492    -0.76600
O833        O  0.37787535  0.54897719  0.07496695    -0.76700
C834        C  0.37585042  0.53554957  0.09904355     1.03800
Cr835      Cr  0.42887450  0.60046644  0.11720093     1.93700
Cr836      Cr  0.39806189  0.64691749  0.11408246     1.93200
Cr837      Cr  0.38458849  0.59544818  0.06644288     1.39100
O838        O  0.40389188  0.61432723  0.09928062    -1.21800
O839        O  0.34712044  0.88409471  0.41515706    -0.84100
O840        O  0.32141975  0.85874615  0.36147952    -0.81100
C841        C  0.29587740  0.82965964  0.36472172     0.99400
O842        O  0.27181323  0.82556220  0.38038563    -0.81200
O843        O  0.23021754  0.84075944  0.41234146    -0.83800
C844        C  0.23931297  0.84123241  0.43795908     1.03900
O845        O  0.26693426  0.86488673  0.44670799    -0.76600
O846        O  0.33322483  0.91142964  0.44620875    -0.76800
C847        C  0.34745072  0.89414857  0.44025416     1.03900
O848        O  0.35913871  0.94996516  0.39772706    -0.84100
O849        O  0.32695351  0.92205195  0.34745513    -0.81100
C850        C  0.30366153  0.90345018  0.33055690     0.99400
O851        O  0.28001589  0.87497104  0.33853789    -0.81200
O852        O  0.24525767  0.89401497  0.37093917    -0.83800
C853        C  0.23730060  0.90736873  0.39041637     1.03900
O854        O  0.24844670  0.90899412  0.41557661    -0.76600
O855        O  0.31603521  0.95492003  0.41142145    -0.76700
C856        C  0.34535734  0.96793560  0.40122113     1.03800
Cr857      Cr  0.33599822  0.90279281  0.38172275     1.93700
Cr858      Cr  0.25936518  0.86089297  0.37728843     1.93200
Cr859      Cr  0.29158315  0.90898907  0.42778767     1.39100
O860        O  0.29563424  0.89066777  0.39584373    -1.21800
O861        O  0.39501690  0.85965099  0.26110585    -0.84100
O862        O  0.33127453  0.81907008  0.28353909    -0.81100
C863        C  0.30795080  0.79625990  0.29799023     0.99400
O864        O  0.30694522  0.76833455  0.30138974    -0.81200
O865        O  0.31482545  0.74434043  0.24799904    -0.83800
C866        C  0.32916928  0.74209754  0.22567021     1.03900
O867        O  0.36126110  0.75726037  0.22402117    -0.76600
O868        O  0.38296782  0.82553244  0.22499996    -0.76800
C869        C  0.38622412  0.85246337  0.23553665     1.03900
O870        O  0.42201269  0.83901665  0.30585447    -0.84100
O871        O  0.36141730  0.80529544  0.33146108    -0.81100
C872        C  0.36144240  0.77919423  0.34022037     0.99400
O873        O  0.35755524  0.75621649  0.32325160    -0.81200
O874        O  0.36100672  0.72736790  0.27383730    -0.83800
C875        C  0.39246198  0.73845838  0.27439185     1.03900
O876        O  0.41285910  0.76793118  0.26590102    -0.76600
O877        O  0.44035680  0.83685140  0.26309509    -0.76700
C878        C  0.44610029  0.84567131  0.28918340     1.03800
Cr879      Cr  0.37685539  0.82829304  0.29394812     1.93700
Cr880      Cr  0.33728770  0.75200580  0.28546810     1.93200
Cr881      Cr  0.39758102  0.79673852  0.24630536     1.39100
O882        O  0.37068510  0.79226989  0.27523746    -1.21800
O883        O  0.05172644  0.90865218  0.33043604    -0.84100
O884        O  0.02975977  0.85045981  0.36160869    -0.81100
C885        C  0.02976608  0.82756785  0.37644915     0.99400
O886        O  0.05701002  0.82751122  0.38127926    -0.81200
O887        O  0.08535668  0.82560889  0.32842816    -0.83800
C888        C  0.09937149  0.83565149  0.30436705     1.03900
O889        O  0.11674726  0.86692129  0.29909879    -0.76600
O890        O  0.06966281  0.88829080  0.29684411    -0.76800
C891        C  0.04736780  0.89442210  0.30659790     1.03900
O892        O  0.10334426  0.94394435  0.37101977    -0.84100
O893        O  0.07775113  0.88810177  0.40543930    -0.81100
C894        C  0.10372778  0.88795724  0.41469767     0.99400
O895        O  0.12134166  0.88101982  0.39834914    -0.81200
O896        O  0.15010095  0.87581688  0.34936870    -0.83800
C897        C  0.17016696  0.90697714  0.34611849     1.03900
O898        O  0.16051419  0.92533326  0.33384610    -0.76600
O899        O  0.11832849  0.95119474  0.32594150    -0.76700
C900        C  0.11883985  0.96316224  0.35043357     1.03800
Cr901      Cr  0.06756404  0.89689379  0.36578625     1.93700
Cr902      Cr  0.10270433  0.85462705  0.36300956     1.93200
Cr903      Cr  0.11486170  0.90648677  0.31603603     1.39100
O904        O  0.09518554  0.88605931  0.34832215    -1.21800
O905        O  0.14786600  0.61658770  0.15954326    -0.84100
O906        O  0.17205239  0.64058309  0.10529368    -0.81100
C907        C  0.19477491  0.67107296  0.10764804     0.99400
O908        O  0.21996445  0.67916277  0.12343542    -0.81200
O909        O  0.26530810  0.67138835  0.15846973    -0.83800
C910        C  0.25634805  0.66865756  0.18439723     1.03900
O911        O  0.23024809  0.64272302  0.19308029    -0.76600
O912        O  0.16460253  0.59256784  0.19149897    -0.76800
C913        C  0.14765214  0.60685227  0.18470140     1.03900
O914        O  0.14152067  0.55332826  0.14471778    -0.84100
O915        O  0.17403967  0.58121608  0.09371517    -0.81100
C916        C  0.19731445  0.60082749  0.07711076     0.99400
O917        O  0.21934338  0.63022339  0.08463423    -0.81200
O918        O  0.25848156  0.61903688  0.11886315    -0.83800
C919        C  0.26532178  0.60477275  0.13835218     1.03900
O920        O  0.25263115  0.60160270  0.16299375    -0.76600
O921        O  0.18674838  0.55219311  0.15722836    -0.76700
C922        C  0.15698825  0.53710800  0.14790569     1.03800
Cr923      Cr  0.16188196  0.59923241  0.12711268     1.93700
Cr924      Cr  0.23816399  0.64767562  0.12323904     1.93200
Cr925      Cr  0.20804084  0.59837749  0.17388767     1.39100
O926        O  0.20288899  0.61557698  0.14170641    -1.21800
O927        O  0.14915254  0.52889687  0.41486028    -0.84100
O928        O  0.16795258  0.52393776  0.46981441    -0.81100
C929        C  0.19292850  0.51962525  0.46706157     0.99400
O930        O  0.21801899  0.54010758  0.45265300    -0.81200
O931        O  0.25959282  0.59639990  0.42028970    -0.83800
C932        C  0.25260820  0.59584558  0.39398620     1.03900
O933        O  0.22707941  0.59755176  0.38604396    -0.76600
O934        O  0.15895879  0.57247165  0.38800140    -0.76800
C935        C  0.14814270  0.54100480  0.39100511     1.03900
O936        O  0.13001615  0.57595914  0.43424404    -0.84100
O937        O  0.16029528  0.57826168  0.48543561    -0.81100
C938        C  0.18430543  0.58799925  0.99804422     0.99400
O939        O  0.20975185  0.58197587  0.49433729    -0.81200
O940        O  0.25038512  0.63698118  0.46398444    -0.83800
C941        C  0.25500085  0.65987093  0.44683071     1.03900
O942        O  0.23981545  0.65289148  0.42308235    -0.76600
O943        O  0.17104800  0.62711123  0.42918492    -0.76700
C944        C  0.14097240  0.60708133  0.43645163     1.03800
Cr945      Cr  0.15490717  0.55398328  0.44986486     1.93700
Cr946      Cr  0.23172547  0.58864176  0.45604743     1.93200
Cr947      Cr  0.19881556  0.61067483  0.40880773     1.39100
O948        O  0.19574584  0.58466030  0.43811845    -1.21800
O949        O  0.02976827  0.64610500  0.24407625    -0.84100
O950        O  0.03007358  0.66921996  0.18969136    -0.81100
C951        C  0.02382812  0.69324478  0.19137757     0.99400
O952        O  0.04202595  0.71869262  0.20652065    -0.81200
O953        O  0.09638142  0.76360892  0.24065022    -0.83800
C954        C  0.08929239  0.75565577  0.26673020     1.03900
O955        O  0.08609201  0.72838145  0.27601233    -0.76600
O956        O  0.07003720  0.66234466  0.27621657    -0.76800
C957        C  0.03883392  0.64625606  0.26940162     1.03900
O958        O  0.08648505  0.63780412  0.22975026    -0.84100
O959        O  0.09014714  0.66760241  0.17802955    -0.81100
C960        C  0.09216997  0.68911558  0.16025466     0.99400
O961        O  0.08770861  0.71330728  0.16788364    -0.81200
O962        O  0.14009026  0.75286942  0.20167588    -0.83800
C963        C  0.16010268  0.76247868  0.22230543     1.03900
O964        O  0.14968080  0.74973884  0.24688760    -0.76600
O965        O  0.13271644  0.68284467  0.24254504    -0.76700
C966        C  0.11818387  0.65326985  0.23282242     1.03800
Cr967      Cr  0.06090630  0.65817468  0.21170219     1.93700
Cr968      Cr  0.09118372  0.73457962  0.20599079     1.93200
Cr969      Cr  0.10812245  0.70511744  0.25810900     1.39100
O970        O  0.08647951  0.69942035  0.22548470    -1.21800
O971        O  0.35435110  0.95609840  0.16841342    -0.84100
O972        O  0.31679907  0.97772594  0.19939952    -0.81100
C973        C  0.29386738  0.97722710  0.21476424     0.99400
O974        O  0.26673487  0.94995759  0.21897732    -0.81200
O975        O  0.23729635  0.92092706  0.16609933    -0.83800
C976        C  0.23395321  0.90647644  0.14232368     1.03900
O977        O  0.24867559  0.88972955  0.13733482    -0.76600
O978        O  0.31702833  0.93594322  0.13430633    -0.76800
C979        C  0.34515091  0.95890309  0.14374067     1.03900
O980        O  0.33808662  0.90472233  0.20990731    -0.84100
O981        O  0.30730903  0.93039877  0.24315556    -0.81100
C982        C  0.28167817  0.90436052  0.25255356     0.99400
O983        O  0.25704099  0.88654094  0.23656242    -0.81200
O984        O  0.22240657  0.85685615  0.18830103    -0.83800
C985        C  0.23257382  0.83604457  0.18432680     1.03900
O986        O  0.26117187  0.84552603  0.17297029    -0.76600
O987        O  0.33001399  0.88702757  0.16567089    -0.76700
C988        C  0.34159448  0.88777424  0.19034935     1.03800
Cr989      Cr  0.32627530  0.94018463  0.20370650     1.93700
Cr990      Cr  0.24897007  0.90442154  0.20103692     1.93200
Cr991      Cr  0.28929957  0.89120317  0.15479710     1.39100
O992        O  0.28811760  0.91186868  0.18645885    -1.21800
O993        O  0.10038759  0.65040393  0.49368913    -0.84100
O994        O  0.14575018  0.67778720  0.02552912    -0.81100
C995        C  0.16558561  0.69758916  0.04397637     0.99400
O996        O  0.16406708  0.72342228  0.05086652    -0.81200
O997        O  0.16872347  0.75827316  0.99991698    -0.83800
C998        C  0.16218010  0.76969444  0.47586179     1.03900
O999        O  0.13061554  0.75679443  0.47203992    -0.76600
O1000       O  0.11055795  0.69104469  0.46339451    -0.76800
C1001       C  0.11062044  0.66422295  0.46951800     1.03900
O1002       O  0.04900406  0.65071573  0.03076515    -0.84100
O1003       O  0.10094760  0.67899969  0.06882204    -0.81100
C1004       C  0.10112471  0.70428162  0.08044767     0.99400
O1005       O  0.10896519  0.73077433  0.06672906    -0.81200
O1006       O  0.11875374  0.77232414  0.02249820    -0.83800
C1007       C  0.08781137  0.76289369  0.01993843     1.03900
O1008       O  0.07265407  0.73771724  0.50934127    -0.76600
O1009       O  0.04784540  0.67096907  0.49519114    -0.76700
C1010       C  0.02988396  0.65241567  0.01230213     1.03800
Cr1011     Cr  0.09792421  0.66639133  0.02710996     1.93700
Cr1012     Cr  0.13808741  0.74344372  0.03328822     1.93200
Cr1013     Cr  0.09185289  0.71377196  0.48720193     1.39100
O1014       O  0.10761051  0.70693633  0.01503546    -1.21800
O1015       O  0.11006181  0.96582730  0.08004871    -0.84100
O1016       O  0.13521306  0.96486020  0.02675316    -0.81100
C1017       C  0.16535130  0.97119465  0.03003163     0.99400
O1018       O  0.17187190  0.95210513  0.04473752    -0.81200
O1019       O  0.16071804  0.89870475  0.07989009    -0.83800
C1020       C  0.15985591  0.90784650  0.10529462     1.03900
O1021       O  0.13519434  0.91046527  0.11400021    -0.76600
O1022       O  0.08516618  0.92596209  0.11238190    -0.76800
C1023       C  0.10053471  0.95693107  0.10532598     1.03900
O1024       O  0.04602966  0.90948191  0.06505161    -0.84100
O1025       O  0.07405533  0.90434679  0.01462862    -0.81100
C1026       C  0.10252294  0.90578091  0.49439054     0.99400
O1027       O  0.12242326  0.90659254  0.00558854    -0.81200
O1028       O  0.10711203  0.85503290  0.04068599    -0.83800
C1029       C  0.09461980  0.83512478  0.06121837     1.03900
O1030       O  0.09348423  0.84612084  0.08580122    -0.76600
O1031       O  0.04436605  0.86340417  0.07960542    -0.76700
C1032       C  0.02959597  0.87805544  0.06940253     1.03800
Cr1033     Cr  0.09244930  0.93438792  0.04784686     1.93700
Cr1034     Cr  0.13832718  0.90344998  0.04446857     1.93200
Cr1035     Cr  0.09059050  0.88796091  0.09562994     1.39100
O1036       O  0.10754970  0.90897032  0.06290283    -1.21800
O1037       O  0.38084604  0.53767682  0.32673044    -0.84100
O1038       O  0.35895913  0.54130312  0.27290590    -0.81100
C1039       C  0.32821103  0.53321648  0.27391431     0.99400
O1040       O  0.31836218  0.54821028  0.29072093    -0.81200
O1041       O  0.32382982  0.59875129  0.32921780    -0.83800
C1042       C  0.32606995  0.59213209  0.35519968     1.03900
O1043       O  0.35094138  0.58967930  0.36363886    -0.76600
O1044       O  0.40227057  0.57535715  0.36117173    -0.76800
C1045       C  0.38848272  0.54484205  0.35254793     1.03900
O1046       O  0.44398466  0.59692750  0.31531171    -0.84100
O1047       O  0.41726957  0.60362252  0.26412959    -0.81100
C1048       C  0.39703722  0.60503770  0.24659566     0.99400
O1049       O  0.36784824  0.59880817  0.25448451    -0.81200
O1050       O  0.37703934  0.64667916  0.29217493    -0.83800
C1051       C  0.38850074  0.66586949  0.31326751     1.03900
O1052       O  0.39112036  0.65469330  0.33728111    -0.76600
O1053       O  0.44285150  0.64116722  0.33055115    -0.76700
C1054       C  0.45913353  0.62825557  0.31993424     1.03800
Cr1055     Cr  0.39893697  0.57149775  0.29625261     1.93700
Cr1056     Cr  0.34895453  0.59773742  0.29355133     1.93200
Cr1057     Cr  0.39594659  0.61370460  0.34567599     1.39100
O1058       O  0.38069570  0.59391104  0.31210372    -1.21800
O1059       O  0.46204640  0.85177415  0.49221301    -0.84100
O1060       O  0.45248954  0.82601401  0.43700399    -0.81100
C1061       C  0.46008740  0.80307240  0.43619907     0.99400
O1062       O  0.44742239  0.77928579  0.45394435    -0.81200
O1063       O  0.40118331  0.73553119  0.49467417    -0.83800
C1064       C  0.40713008  0.74574377  0.02110508     1.03900
O1065       O  0.40859623  0.77266756  0.02962285    -0.76600
O1066       O  0.42621587  0.83948903  0.02636839    -0.76800
C1067       C  0.45746520  0.85510422  0.01961100     1.03900
O1068       O  0.40453880  0.85897523  0.48574927    -0.84100
O1069       O  0.39051489  0.82394676  0.43452942    -0.81100
C1070       C  0.38464346  0.80030300  0.41741086     0.99400
O1071       O  0.39265520  0.77809332  0.42327802    -0.81200
O1072       O  0.34922067  0.73867362  0.46182327    -0.83800
C1073       C  0.33035119  0.73278776  0.48290929     1.03900
O1074       O  0.34605653  0.75169815  0.99929325    -0.76600
O1075       O  0.36410670  0.81843422  0.99165705    -0.76700
C1076       C  0.37315997  0.84420724  0.48928711     1.03800
Cr1077     Cr  0.42590631  0.83712289  0.46381988     1.93700
Cr1078     Cr  0.39828077  0.76072946  0.46049884     1.93200
Cr1079     Cr  0.38787625  0.79611592  0.00940488     1.39100
O1080       O  0.40357904  0.79655394  0.47980068    -1.21800
C1081       C  0.48410335  0.87640420  0.04023078    -0.15200
C1082       C  0.99400928  0.85781605  0.06024562    -0.30300
H1083       H  0.49595815  0.90354724  0.03762598     0.13900
H1084       H  0.98300262  0.83054233  0.05996233     0.14400
C1085       C  0.07622755  0.78591174  0.03004164    -0.15200
C1086       C  0.08512173  0.79961899  0.05630753    -0.30300
H1087       H  0.06813675  0.79753116  0.01400938     0.13900
H1088       H  0.09208280  0.78724650  0.07253809     0.14400
C1089       C  0.21117813  0.90669113  0.12014699    -0.15200
C1090       C  0.18672294  0.91397914  0.12592835    -0.30300
H1091       H  0.21229261  0.89708704  0.09921091     0.13900
H1092       H  0.18476074  0.92228256  0.14720397     0.14400
C1093       C  0.30198774  0.00694326  0.23217034    -0.15200
C1094       C  0.30594808  0.50926012  0.25226264    -0.30300
H1095       H  0.32284215  0.03070861  0.22455782     0.13900
H1096       H  0.28223541  0.48776333  0.25902910     0.14400
C1097       C  0.20898366  0.80031060  0.19164764    -0.15200
C1098       C  0.19447099  0.79179672  0.21781651    -0.30300
H1099       H  0.19892206  0.78230981  0.17424126     0.13900
H1100       H  0.20553722  0.80956207  0.23530910     0.14400
C1101       C  0.09743814  0.68502926  0.12998168    -0.15200
C1102       C  0.09400073  0.70464429  0.11066284    -0.30300
H1103       H  0.10386420  0.66602644  0.12352703     0.13900
H1104       H  0.08812352  0.72393195  0.11747803     0.14400
C1105       C  0.49498413  0.64987810  0.31103305    -0.15200
C1106       C  0.01193799  0.62587085  0.29020934    -0.30300
H1107       H  0.50668251  0.67702419  0.31368003     0.13900
H1108       H  0.99802109  0.59882167  0.28655635     0.14400
C1109       C  0.28120528  0.69495300  0.45358486    -0.15200
C1110       C  0.29509346  0.70476175  0.47987443    -0.30300
H1111       H  0.29282208  0.71175469  0.43556129     0.13900
H1112       H  0.28287221  0.68908160  0.49835583     0.14400
C1113       C  0.30104440  0.58936667  0.37703426    -0.15200
C1114       C  0.27489265  0.59431650  0.37143656    -0.30300
H1115       H  0.30567527  0.58516472  0.39893602     0.13900
H1116       H  0.26998144  0.59818950  0.34953101     0.14400
C1117       C  0.12540138  0.65051883  0.44888601    -0.15200
C1118       C  0.11941150  0.61870448  0.45040580    -0.30300
H1119       H  0.14401898  0.66791214  0.43384477     0.13900
H1120       H  0.09954259  0.60096040  0.46441703     0.14400
C1121       C  0.19294425  0.49280693  0.48421488    -0.15200
C1122       C  0.19190290  0.99993307  0.01451008    -0.30300
H1123       H  0.18744026  0.97082939  0.47553757     0.13900
H1124       H  0.20057562  0.52834961  0.02019951     0.14400
C1125       C  0.14149437  0.50145994  0.13860064    -0.15200
C1126       C  0.10661120  0.98353470  0.12600255    -0.30300
H1127       H  0.15742320  0.48994702  0.13848191     0.13900
H1128       H  0.09367873  0.99771010  0.12209420     0.16800
C1129       C  0.17877208  0.59220200  0.02812683    -0.15200
C1130       C  0.19878443  0.59068343  0.04814027    -0.30300
H1131       H  0.15858823  0.59717964  0.03395234     0.13900
H1132       H  0.21966655  0.58673811  0.04253813     0.14400
C1133       C  0.18564561  0.68688831  0.06088392    -0.15200
C1134       C  0.19278277  0.69549812  0.08858072    -0.30300
H1135       H  0.18718080  0.66534020  0.05279241     0.13900
H1136       H  0.19101144  0.71641551  0.09774631     0.14400
C1137       C  0.12589798  0.61130499  0.20547741    -0.15200
C1138       C  0.13878706  0.63832810  0.22279505    -0.30300
H1139       H  0.09895511  0.59787669  0.20114446     0.13900
H1140       H  0.16604527  0.65331465  0.22520993     0.14400
C1141       C  0.09735843  0.81146797  0.28211753    -0.15200
C1142       C  0.08628442  0.77867956  0.28748791    -0.30300
H1143       H  0.10775561  0.82158952  0.26124759     0.13900
H1144       H  0.07728818  0.76894129  0.30874601     0.14400
C1145       C  0.47764196  0.80230357  0.41030970    -0.15200
C1146       C  0.99876996  0.80499465  0.39195536    -0.30300
H1147       H  0.47159675  0.81238236  0.39162560     0.13900
H1148       H  0.97552748  0.80262029  0.38335951     0.14400
C1149       C  0.13897922  0.99971100  0.35568922    -0.15200
C1150       C  0.13270120  0.51706907  0.36743976    -0.30300
H1151       H  0.16616421  0.01146311  0.35289265     0.13900
H1152       H  0.10996457  0.51437842  0.35757862     0.14400
C1153       C  0.11313358  0.89493318  0.44496948    -0.15200
C1154       C  0.09294895  0.89799396  0.46422466    -0.30300
H1155       H  0.13707056  0.89734877  0.45156384     0.13900
H1156       H  0.06885628  0.89521319  0.45763987     0.14400
C1157       C  0.40423342  0.71538624  0.28355987    -0.15200
C1158       C  0.39559092  0.70077575  0.30948112    -0.30300
H1159       H  0.41297596  0.70481361  0.26705753     0.13900
H1160       H  0.38765998  0.71182200  0.32622024     0.14400
C1161       C  0.30869528  0.71976383  0.20184572    -0.15200
C1162       C  0.27642994  0.69519363  0.20572475    -0.30300
H1163       H  0.32122367  0.72141886  0.18172263     0.13900
H1164       H  0.26479782  0.69265735  0.22647677     0.14400
C1165       C  0.01479695  0.88415337  0.29237200    -0.15200
C1166       C  0.48013649  0.86382441  0.30240251    -0.30300
H1167       H  0.99869178  0.89210493  0.30302730     0.13900
H1168       H  0.47920504  0.86935591  0.32481846     0.14400
C1169       C  0.36652232  0.77585796  0.37036350    -0.15200
C1170       C  0.37138640  0.80008126  0.38912223    -0.30300
H1171       H  0.36907478  0.75436077  0.37676946     0.13900
H1172       H  0.36856114  0.82145561  0.38283917     0.14400
C1173       C  0.37856198  0.87593971  0.21996714    -0.15200
C1174       C  0.35843031  0.86785369  0.19700168    -0.30300
H1175       H  0.38527988  0.89937357  0.23102495     0.13900
H1176       H  0.35131017  0.84479292  0.18525250     0.14400
C1177       C  0.20517535  0.92048069  0.35579252    -0.15200
C1178       C  0.21144790  0.91673933  0.38336813    -0.30300
H1179       H  0.22378409  0.92474460  0.33943824     0.13900
H1180       H  0.19308906  0.91314923  0.39972735     0.14400
C1181       C  0.21760414  0.81495099  0.45868699    -0.15200
C1182       C  0.18493023  0.79306850  0.45380218    -0.30300
H1183       H  0.22840298  0.81503910  0.47932312     0.13900
H1184       H  0.17374487  0.79406374  0.43366532     0.14400
C1185       C  0.29203385  0.80249547  0.34580412    -0.15200
C1186       C  0.28946051  0.80622008  0.31755954    -0.30300
H1187       H  0.29953315  0.78489735  0.35384328     0.13900
H1188       H  0.28434061  0.82580686  0.31021414     0.14400
C1189       C  0.36707190  0.88731953  0.46175243    -0.15200
C1190       C  0.35284245  0.85905412  0.47789965    -0.30300
H1191       H  0.39430395  0.90136722  0.45939268     0.13900
H1192       H  0.32554144  0.84386050  0.47882748     0.14400
C1193       C  0.36203902  0.00356048  0.39157304    -0.15200
C1194       C  0.38186729  0.51663445  0.37188243    -0.30300
H1195       H  0.35074050  0.01869575  0.39786575     0.13900
H1196       H  0.39784464  0.50536263  0.36954879     0.14400
C1197       C  0.28020723  0.89494888  0.28251659    -0.15200
C1198       C  0.30472303  0.91421699  0.30101253    -0.30300
H1199       H  0.25864776  0.87134572  0.28938980     0.13900
H1200       H  0.32609310  0.93805786  0.29430237     0.14400
C1201       C  0.29594817  0.58760915  0.10528166    -0.15200
C1202       C  0.29099963  0.59498746  0.13217219    -0.30300
H1203       H  0.27683621  0.58159972  0.08904873     0.13900
H1204       H  0.30976404  0.60000634  0.14849985     0.14400
C1205       C  0.40581344  0.69275208  0.03516187    -0.15200
C1206       C  0.41130125  0.72371229  0.04211116    -0.30300
H1207       H  0.39880624  0.68383594  0.01342356     0.13900
H1208       H  0.41667242  0.73214416  0.06410223     0.14400
C1209       C  0.99264469  0.63570678  0.01793469    -0.15200
C1210       C  0.48532384  0.61616536  0.04487585    -0.30300
H1211       H  0.97803361  0.64538819  0.00737625     0.13900
H1212       H  0.50125008  0.60840622  0.05598009     0.14400
C1213       C  0.99817803  0.69260588  0.17204179    -0.15200
C1214       C  0.49773765  0.68907974  0.14898718    -0.30300
H1215       H  0.97562553  0.69143993  0.18099128     0.13900
H1216       H  0.52288750  0.69994018  0.13976782     0.14400
C1217       C  0.36849980  0.99046232  0.12795074    -0.15200
C1218       C  0.35555250  0.49832694  0.10293084    -0.30300
H1219       H  0.39275246  0.00572287  0.13833718     0.13900
H1220       H  0.33017662  0.48466666  0.09425393     0.14400
C1221       C  0.40634427  0.61074712  0.21623228    -0.15200
C1222       C  0.38423428  0.60817373  0.19608399    -0.30300
H1223       H  0.43131996  0.61543762  0.21017364     0.13900
H1224       H  0.35946468  0.60413643  0.20208784     0.14400
O1225       O  0.45806252  0.59972027  0.58872043    -0.84100
O1226       O  0.47850840  0.65996916  0.61573244    -0.81100
C1227       C  0.47838879  0.68208735  0.63144386     0.99400
O1228       O  0.45124614  0.68262150  0.63524394    -0.81200
O1229       O  0.42413631  0.68041986  0.58030289    -0.83800
C1230       C  0.40833334  0.66829476  0.55725419     1.03900
O1231       O  0.39068859  0.63648382  0.55382180    -0.76600
O1232       O  0.43572835  0.61271073  0.55321884    -0.76800
C1233       C  0.45968281  0.60951912  0.56339103     1.03900
O1234       O  0.40793774  0.56739079  0.63134255    -0.84100
O1235       O  0.43048926  0.62483608  0.66108982    -0.81100
C1236       C  0.40369449  0.62444048  0.66900629     0.99400
O1237       O  0.38663472  0.63103642  0.65189476    -0.81200
O1238       O  0.35899443  0.63417542  0.60190465    -0.83800
C1239       C  0.33774573  0.60310473  0.60120963     1.03900
O1240       O  0.34655949  0.58223919  0.59270490    -0.76600
O1241       O  0.38795124  0.55321900  0.58796892    -0.76700
C1242       C  0.39210710  0.54509542  0.61299728     1.03800
Cr1243     Cr  0.44180847  0.61374759  0.62272860     1.93700
Cr1244     Cr  0.40609819  0.65487267  0.61611882     1.93200
Cr1245     Cr  0.39163373  0.59760793  0.57391131     1.39100
O1246       O  0.41297318  0.62178690  0.60424160    -1.21800
O1247       O  0.34730173  0.88261522  0.90319683    -0.84100
O1248       O  0.31531336  0.85255827  0.85317795    -0.81100
C1249       C  0.29369294  0.82214002  0.85797578     0.99400
O1250       O  0.26991953  0.81473408  0.87549456    -0.81200
O1251       O  0.22804139  0.82669501  0.91245241    -0.83800
C1252       C  0.23846566  0.83080542  0.93782772     1.03900
O1253       O  0.26618848  0.85593030  0.94463641    -0.76600
O1254       O  0.33150558  0.90476594  0.93772125    -0.76800
C1255       C  0.34857465  0.89128098  0.92890350     1.03900
O1256       O  0.34917584  0.94339168  0.88625595    -0.84100
O1257       O  0.30859962  0.90910132  0.83965604    -0.81100
C1258       C  0.28402536  0.88686317  0.82542424     0.99400
O1259       O  0.26477349  0.85818056  0.83559570    -0.81200
O1260       O  0.23083970  0.87477844  0.87180076    -0.83800
C1261       C  0.22637215  0.89088895  0.89135762     1.03900
O1262       O  0.24149624  0.89572925  0.91507632    -0.76600
O1263       O  0.30634239  0.94447770  0.90538243    -0.76700
C1264       C  0.33426596  0.95946227  0.89267014     1.03800
Cr1265     Cr  0.32720820  0.89577334  0.87215758     1.93700
Cr1266     Cr  0.25134501  0.84611025  0.87562248     1.93200
Cr1267     Cr  0.28679617  0.89896814  0.92325972     1.39100
O1268       O  0.28848091  0.87982242  0.89080591    -1.21800
O1269       O  0.40857745  0.85949556  0.75055821    -0.84100
O1270       O  0.34981148  0.82244368  0.78193434    -0.81100
C1271       C  0.32691985  0.79892453  0.79642099     0.99400
O1272       O  0.32768425  0.77208909  0.80092474    -0.81200
O1273       O  0.32659787  0.74409426  0.74797407    -0.83800
C1274       C  0.33680241  0.74015681  0.72404880     1.03900
O1275       O  0.36806035  0.75390687  0.71854842    -0.76600
O1276       O  0.38928338  0.82205176  0.71648949    -0.76800
C1277       C  0.39480179  0.85008207  0.72657198     1.03900
O1278       O  0.44421260  0.84268162  0.79060331    -0.84100
O1279       O  0.38782844  0.81171113  0.82436785    -0.81100
C1280       C  0.38759672  0.78559276  0.83345073     0.99400
O1281       O  0.38156550  0.76148655  0.81706510    -0.81200
O1282       O  0.37625660  0.72831134  0.76770809    -0.83800
C1283       C  0.40738598  0.73888876  0.76455284     1.03900
O1284       O  0.42621791  0.76731917  0.75316388    -0.76600
O1285       O  0.45223599  0.83562504  0.74560548    -0.76700
C1286       C  0.46395249  0.84700757  0.77013098     1.03800
Cr1287     Cr  0.39682400  0.83137171  0.78545975     1.93700
Cr1288     Cr  0.35527234  0.75445260  0.78208842     1.93200
Cr1289     Cr  0.40751835  0.79472308  0.73553344     1.39100
O1290       O  0.38658787  0.79348965  0.76770714    -1.21800
O1291       O  0.04180109  0.90465007  0.83609302    -0.84100
O1292       O  0.01959840  0.84618876  0.86683456    -0.81100
C1293       C  0.01933401  0.82366053  0.88232560     0.99400
O1294       O  0.04604096  0.82232001  0.88596587    -0.81200
O1295       O  0.07362374  0.82138016  0.83177167    -0.83800
C1296       C  0.08953868  0.83259862  0.80855489     1.03900
O1297       O  0.10786831  0.86401745  0.80460141    -0.76600
O1298       O  0.06273690  0.88750730  0.80215440    -0.76800
C1299       C  0.03966922  0.89281028  0.81143534     1.03900
O1300       O  0.09333650  0.93948595  0.87728387    -0.84100
O1301       O  0.06838350  0.88300143  0.91024269    -0.81100
C1302       C  0.09375305  0.88146319  0.91916411     0.99400
O1303       O  0.11058715  0.87354426  0.90280169    -0.81200
O1304       O  0.13847096  0.86797640  0.85348684    -0.83800
C1305       C  0.16004533  0.89884400  0.85158232     1.03900
O1306       O  0.15185300  0.91947331  0.84139452    -0.76600
O1307       O  0.11110330  0.94824646  0.83305742    -0.76700
C1308       C  0.10928906  0.95948146  0.85726722     1.03800
Cr1309     Cr  0.05779197  0.89243182  0.87122299     1.93700
Cr1310     Cr  0.09138836  0.84856330  0.86718005     1.93200
Cr1311     Cr  0.10686540  0.90338929  0.82246013     1.39100
O1312       O  0.08544001  0.88160785  0.85368478    -1.21800
O1313       O  0.15182606  0.62243013  0.66088270    -0.84100
O1314       O  0.17805286  0.64821059  0.60743426    -0.81100
C1315       C  0.20143834  0.67827012  0.61061826     0.99400
O1316       O  0.22609295  0.68478430  0.62668252    -0.81200
O1317       O  0.26808587  0.67245574  0.66204191    -0.83800
C1318       C  0.25913577  0.66883798  0.68791772     1.03900
O1319       O  0.23235863  0.64334322  0.69618861    -0.76600
O1320       O  0.16577805  0.59531465  0.69206566    -0.76800
C1321       C  0.15045770  0.61143728  0.68575741     1.03900
O1322       O  0.14325823  0.55842181  0.64377047    -0.84100
O1323       O  0.17840695  0.58842883  0.59445280    -0.81100
C1324       C  0.20298150  0.60796328  0.57887352     0.99400
O1325       O  0.22532044  0.63668733  0.58724265    -0.81200
O1326       O  0.26218812  0.62215234  0.62157536    -0.83800
C1327       C  0.26823044  0.60713202  0.64100769     1.03900
O1328       O  0.25373266  0.60232006  0.66504610    -0.76600
O1329       O  0.18723911  0.55506395  0.65642215    -0.76700
C1330       C  0.15789977  0.54128315  0.64619548     1.03800
Cr1331     Cr  0.16583394  0.60552003  0.62804643     1.93700
Cr1332     Cr  0.24260781  0.65168850  0.62621172     1.93200
Cr1333     Cr  0.20927144  0.60020395  0.67512266     1.39100
O1334       O  0.20613795  0.61968289  0.64346593    -1.21800
O1335       O  0.15165812  0.53140437  0.91063807    -0.84100
O1336       O  0.17061105  0.52902919  0.96628242    -0.81100
C1337       C  0.19618771  0.52549959  0.96494081     0.99400
O1338       O  0.22163202  0.54601202  0.95081270    -0.81200
O1339       O  0.26353887  0.60254075  0.91786065    -0.83800
C1340       C  0.25728186  0.60059220  0.89129416     1.03900
O1341       O  0.23069336  0.59962048  0.88216559    -0.76600
O1342       O  0.16174796  0.57416263  0.88262033    -0.76800
C1343       C  0.15000350  0.54258139  0.88651223     1.03900
O1344       O  0.13251748  0.57921476  0.92781492    -0.84100
O1345       O  0.16174669  0.58333767  0.98020431    -0.81100
C1346       C  0.18357942  0.58299638  0.50242840     0.99400
O1347       O  0.21106488  0.58778226  0.99063889    -0.81200
O1348       O  0.25103447  0.64267738  0.95919094    -0.83800
C1349       C  0.25803227  0.66445167  0.94023124     1.03900
O1350       O  0.24302368  0.65627878  0.91638199    -0.76600
O1351       O  0.17292872  0.63050818  0.92241059    -0.76700
C1352       C  0.14292378  0.61021306  0.93009177     1.03800
Cr1353     Cr  0.15723982  0.55798430  0.94506395     1.93700
Cr1354     Cr  0.23405561  0.59434876  0.95274529     1.93200
Cr1355     Cr  0.20150909  0.61342839  0.90316066     1.39100
O1356       O  0.19817648  0.58863972  0.93346014    -1.21800
O1357       O  0.03121067  0.65021451  0.74388750    -0.84100
O1358       O  0.03293322  0.67672063  0.69053155    -0.81100
C1359       C  0.02655616  0.70059962  0.69340976     0.99400
O1360       O  0.04487253  0.72554559  0.70893808    -0.81200
O1361       O  0.09738100  0.76754203  0.74489918    -0.83800
C1362       C  0.08803567  0.75738720  0.77027278     1.03900
O1363       O  0.08540705  0.73006913  0.77873466    -0.76600
O1364       O  0.07064633  0.66454338  0.77652867    -0.76800
C1365       C  0.03964944  0.64849730  0.76907283     1.03900
O1366       O  0.08889285  0.64336659  0.72928101    -0.84100
O1367       O  0.09397390  0.67600132  0.67932184    -0.81100
C1368       C  0.09696854  0.69840108  0.66219430     0.99400
O1369       O  0.09158075  0.72189728  0.67013393    -0.81200
O1370       O  0.14268221  0.75882791  0.70587598    -0.83800
C1371       C  0.16204127  0.76723766  0.72689187     1.03900
O1372       O  0.15055893  0.75410615  0.75116326    -0.76600
O1373       O  0.13451758  0.68790736  0.74386951    -0.76700
C1374       C  0.12054186  0.65892905  0.73291424     1.03800
Cr1375     Cr  0.06338111  0.66442579  0.71208848     1.93700
Cr1376     Cr  0.09378796  0.74091973  0.70914953     1.93200
Cr1377     Cr  0.10888168  0.70865246  0.76031664     1.39100
O1378       O  0.08829064  0.70475071  0.72744464    -1.21800
O1379       O  0.35887620  0.94860299  0.65898571    -0.84100
O1380       O  0.32870487  0.97969198  0.68964896    -0.81100
C1381       C  0.30734771  0.98223599  0.70519006     0.99400
O1382       O  0.27962688  0.95658661  0.71156231    -0.81200
O1383       O  0.24176753  0.91958972  0.66485280    -0.83800
C1384       C  0.23586139  0.90287836  0.64204227     1.03900
O1385       O  0.24931654  0.88498937  0.63735412    -0.76600
O1386       O  0.31719992  0.92986085  0.62919545    -0.76800
C1387       C  0.34684234  0.95208635  0.63612285     1.03900
O1388       O  0.34488995  0.90353540  0.70457143    -0.84100
O1389       O  0.32311052  0.93965826  0.73644254    -0.81100
C1390       C  0.29820592  0.91751553  0.74979840     0.99400
O1391       O  0.27121973  0.89727377  0.73710473    -0.81200
O1392       O  0.22961169  0.85929775  0.69403701    -0.83800
C1393       C  0.23726557  0.83685579  0.68851999     1.03900
O1394       O  0.26360383  0.84377941  0.67420947    -0.76600
O1395       O  0.33177690  0.88218371  0.66152292    -0.76700
C1396       C  0.34546409  0.88426754  0.68549491     1.03800
Cr1397     Cr  0.33571991  0.94065361  0.69618316     1.93700
Cr1398     Cr  0.25836024  0.90849060  0.70018849     1.93200
Cr1399     Cr  0.29103668  0.88720809  0.65270876     1.39100
O1400       O  0.29474500  0.91184839  0.68321535    -1.21800
O1401       O  0.09395500  0.64681074  0.98771113    -0.84100
O1402       O  0.15441001  0.68558860  0.52906009    -0.81100
C1403       C  0.17468099  0.70669546  0.54657289     0.99400
O1404       O  0.17310946  0.73293060  0.55191423    -0.81200
O1405       O  0.17351141  0.76383314  0.49853192    -0.83800
C1406       C  0.15925066  0.76568353  0.97707658     1.03900
O1407       O  0.12820694  0.75515745  0.97240691    -0.76600
O1408       O  0.10693296  0.69020309  0.95997594    -0.76800
C1409       C  0.10679077  0.66298503  0.96480227     1.03900
O1410       O  0.05749223  0.65623865  0.53688274    -0.84100
O1411       O  0.11087722  0.68881432  0.57253926    -0.81100
C1412       C  0.11021687  0.71428204  0.58277170     0.99400
O1413       O  0.11763022  0.73987882  0.56792053    -0.81200
O1414       O  0.12335341  0.77690491  0.52152419    -0.83800
C1415       C  0.09199848  0.76602111  0.52047500     1.03900
O1416       O  0.06842018  0.73556614  0.00734279    -0.76600
O1417       O  0.04238065  0.66965467  0.98991248    -0.76700
C1418       C  0.03699397  0.65514116  0.51842827     1.03800
Cr1419     Cr  0.10630995  0.67303581  0.53178052     1.93700
Cr1420     Cr  0.14494216  0.75044164  0.53340888     1.93200
Cr1421     Cr  0.08762874  0.71194163  0.98457884     1.39100
O1422       O  0.11422866  0.71211613  0.51745212    -1.21800
O1423       O  0.11752221  0.97052150  0.57713827    -0.84100
O1424       O  0.14494671  0.96883758  0.52552452    -0.81100
C1425       C  0.17447382  0.97345527  0.52918010     0.99400
O1426       O  0.17950759  0.95327949  0.54375650    -0.81200
O1427       O  0.16465526  0.89913497  0.57918184    -0.83800
C1428       C  0.16458281  0.90950658  0.60431641     1.03900
O1429       O  0.14138897  0.91498098  0.61229004    -0.76600
O1430       O  0.09130946  0.93130536  0.60962696    -0.76800
C1431       C  0.10667164  0.96213662  0.60214584     1.03900
O1432       O  0.05370580  0.91441417  0.56053389    -0.84100
O1433       O  0.08310615  0.90977085  0.51102602    -0.81100
C1434       C  0.09349060  0.90076479  0.99770045     0.99400
O1435       O  0.13049433  0.90976150  0.50323173    -0.81200
O1436       O  0.11078938  0.85756079  0.53943614    -0.83800
C1437       C  0.09913703  0.83844977  0.56056314     1.03900
O1438       O  0.09913361  0.85044009  0.58496542    -0.76600
O1439       O  0.05075793  0.86848675  0.57737311    -0.76700
C1440       C  0.03689821  0.88304949  0.56533678     1.03800
Cr1441     Cr  0.10081561  0.93911803  0.54487207     1.93700
Cr1442     Cr  0.14418697  0.90538466  0.54303579     1.93200
Cr1443     Cr  0.09675563  0.89280086  0.59376384     1.39100
O1444       O  0.11433763  0.91290912  0.56079248    -1.21800
O1445       O  0.36768469  0.53113250  0.82916289    -0.84100
O1446       O  0.34735444  0.53535716  0.77354703    -0.81100
C1447       C  0.31894352  0.53341104  0.77554796     0.99400
O1448       O  0.31495090  0.55270639  0.79219799    -0.81200
O1449       O  0.33138477  0.60664366  0.82851612    -0.83800
C1450       C  0.33562622  0.60301121  0.85477654     1.03900
O1451       O  0.36107961  0.60119814  0.86314196    -0.76600
O1452       O  0.40106867  0.57138807  0.85908820    -0.76800
C1453       C  0.38118425  0.54017351  0.85345124     1.03900
O1454       O  0.43488685  0.57821518  0.81340598    -0.84100
O1455       O  0.41163571  0.58887292  0.76273648    -0.81100
C1456       C  0.39585078  0.59788716  0.74621589     0.99400
O1457       O  0.36838296  0.59654176  0.75369190    -0.81200
O1458       O  0.38496435  0.64809791  0.78816683    -0.83800
C1459       C  0.40339291  0.66887288  0.80656867     1.03900
O1460       O  0.40850525  0.65896600  0.83031671    -0.76600
O1461       O  0.44815063  0.62967781  0.82163503    -0.76700
C1462       C  0.45613543  0.60898369  0.81156091     1.03800
Cr1463     Cr  0.38951483  0.56039867  0.79601119     1.93700
Cr1464     Cr  0.35203505  0.60026614  0.79251323     1.93200
Cr1465     Cr  0.40328994  0.61360915  0.84139785     1.39100
O1466       O  0.38092488  0.59133100  0.81035572    -1.21800
O1467       O  0.46675536  0.85386270  0.99457049    -0.84100
O1468       O  0.46643487  0.82777050  0.94131720    -0.81100
C1469       C  0.47283926  0.80403958  0.94428877     0.99400
O1470       O  0.45475577  0.77944068  0.96025150    -0.81200
O1471       O  0.40093665  0.73687572  0.99520602    -0.83800
C1472       C  0.40784068  0.74372191  0.52067700     1.03900
O1473       O  0.40770662  0.76936347  0.53059989    -0.76600
O1474       O  0.42651215  0.83624452  0.52861597    -0.76800
C1475       C  0.45656051  0.85284462  0.51847578     1.03900
O1476       O  0.41076131  0.86215264  0.97785459    -0.84100
O1477       O  0.40632976  0.82813871  0.92848232    -0.81100
C1478       C  0.40306256  0.80492540  0.91203563     0.99400
O1479       O  0.40844393  0.78172068  0.92054156    -0.81200
O1480       O  0.35641594  0.74388136  0.95518735    -0.83800
C1481       C  0.33595982  0.73710634  0.97535357     1.03900
O1482       O  0.34195324  0.74855318  0.50618934    -0.76600
O1483       O  0.35912611  0.81501711  0.49982783    -0.76700
C1484       C  0.37907699  0.84739562  0.98061157     1.03800
Cr1485     Cr  0.43576047  0.83997782  0.96200662     1.93700
Cr1486     Cr  0.40551478  0.76327356  0.95955739     1.93200
Cr1487     Cr  0.38519809  0.79293502  0.51390188     1.39100
O1488       O  0.40995205  0.79958269  0.97728716    -1.21800
C1489       C  0.48610573  0.87580184  0.53628697    -0.15200
C1490       C  0.00178595  0.86280733  0.55498380    -0.30300
H1491       H  0.50303898  0.90046874  0.52727700     0.13900
H1492       H  0.98741127  0.83637756  0.56102748     0.14400
C1493       C  0.07961235  0.78819979  0.53083628    -0.15200
C1494       C  0.08975007  0.80293102  0.55658069    -0.30300
H1495       H  0.07007378  0.79874684  0.51505557     0.13900
H1496       H  0.09833743  0.79170974  0.57257480     0.14400
C1497       C  0.21241104  0.90269762  0.62027943    -0.15200
C1498       C  0.19054844  0.91370691  0.62532054    -0.30300
H1499       H  0.21162901  0.89093174  0.59993947     0.13900
H1500       H  0.19030894  0.92424389  0.64602988     0.14400
C1501       C  0.31791361  0.01330970  0.72148187    -0.15200
C1502       C  0.29273344  0.51120674  0.75534926    -0.30300
H1503       H  0.34198271  0.03493883  0.71555968     0.13900
H1504       H  0.27137488  0.48850381  0.76383106     0.14400
C1505       C  0.21284768  0.80191066  0.69735847    -0.15200
C1506       C  0.19701444  0.79554682  0.72297647    -0.30300
H1507       H  0.20363547  0.78247330  0.68105655     0.13900
H1508       H  0.20736445  0.81446557  0.73970120     0.14400
C1509       C  0.10466865  0.69580716  0.63234781    -0.15200
C1510       C  0.10213309  0.71548137  0.61263656    -0.30300
H1511       H  0.11184935  0.67719466  0.62641947     0.13900
H1512       H  0.09539541  0.73437611  0.61873292     0.14400
C1513       C  0.48552424  0.61944452  0.79235478    -0.15200
C1514       C  0.01240509  0.62567791  0.78873249    -0.30300
H1515       H  0.47996994  0.60658807  0.77186865     0.13900
H1516       H  0.99916660  0.59908853  0.78316756     0.14400
C1517       C  0.28671946  0.69900614  0.94526276    -0.15200
C1518       C  0.30065231  0.70943439  0.97141662    -0.30300
H1519       H  0.29933390  0.71432780  0.92669956     0.13900
H1520       H  0.28733165  0.69498219  0.99014662     0.14400
C1521       C  0.31092850  0.60154965  0.87659902    -0.15200
C1522       C  0.28153267  0.60037819  0.86987405    -0.30300
H1523       H  0.31732214  0.60166288  0.89888023     0.13900
H1524       H  0.27505508  0.59982369  0.84755901     0.14400
C1525       C  0.12432464  0.65175699  0.94423341    -0.15200
C1526       C  0.12059023  0.62067475  0.94488818    -0.30300
H1527       H  0.14270902  0.67038383  0.92976388     0.13900
H1528       H  0.10100114  0.60184923  0.95846605     0.14400
C1529       C  0.19640820  0.49988649  0.98367654    -0.15200
C1530       C  0.20175695  0.00024480  0.51272779    -0.30300
H1531       H  0.18144374  0.97411676  0.97517734     0.13900
H1532       H  0.20380358  0.52128635  0.52187815     0.14400
C1533       C  0.14226378  0.50619482  0.63516840    -0.15200
C1534       C  0.11170650  0.98934445  0.62191717    -0.30300
H1535       H  0.15840888  0.49497748  0.63360575     0.13900
H1536       H  0.09877895  0.00326419  0.61689613     0.16800
C1537       C  0.17955940  0.58837212  0.53235129    -0.15200
C1538       C  0.20556725  0.59863530  0.55004327    -0.30300
H1539       H  0.15560462  0.58540905  0.53974519     0.13900
H1540       H  0.23036816  0.60436740  0.54235593     0.14400
C1541       C  0.19555338  0.69714200  0.56393253    -0.15200
C1542       C  0.20061726  0.70399717  0.59212908    -0.30300
H1543       H  0.19869712  0.67664876  0.55550360     0.13900
H1544       H  0.19656216  0.72332477  0.60179523     0.14400
C1545       C  0.12908984  0.61643343  0.70669400    -0.15200
C1546       C  0.14180390  0.64496204  0.72220328    -0.30300
H1547       H  0.10192342  0.60096451  0.70422863     0.13900
H1548       H  0.16905871  0.66123717  0.72316657     0.14400
C1549       C  0.08949919  0.80988664  0.78602987    -0.15200
C1550       C  0.08166355  0.77794013  0.79119298    -0.30300
H1551       H  0.09991031  0.82099709  0.76540742     0.13900
H1552       H  0.07279037  0.76732691  0.81224880     0.14400
C1553       C  0.49843988  0.80389004  0.92533196    -0.15200
C1554       C  0.98981620  0.80406359  0.90051492    -0.30300
H1555       H  0.52190571  0.80759615  0.93449044     0.13900
H1556       H  0.96589289  0.80086569  0.89285023     0.14400
C1557       C  0.12679540  0.99629569  0.86263198    -0.15200
C1558       C  0.13192263  0.51752958  0.86391697    -0.30300
H1559       H  0.15103071  0.01217350  0.85242594     0.13900
H1560       H  0.10562322  0.51004248  0.86016110     0.14400
C1561       C  0.10325833  0.88822705  0.94913903    -0.15200
C1562       C  0.08315716  0.89169160  0.96811146    -0.30300
H1563       H  0.12722867  0.89062432  0.95564434     0.13900
H1564       H  0.05889768  0.88861957  0.96165914     0.14400
C1565       C  0.41991939  0.71602066  0.77308406    -0.15200
C1566       C  0.41584323  0.70495080  0.80035276    -0.30300
H1567       H  0.42218176  0.70097699  0.75618365     0.13900
H1568       H  0.41402904  0.72013983  0.81735759     0.14400
C1569       C  0.31270845  0.71792711  0.70246747    -0.15200
C1570       C  0.28105437  0.69407593  0.70907140    -0.30300
H1571       H  0.32229830  0.71928003  0.68101170     0.13900
H1572       H  0.27195848  0.69154464  0.73084290     0.14400
C1573       C  0.00876929  0.88428305  0.79490955    -0.15200
C1574       C  0.50094731  0.86494215  0.77528177    -0.30300
H1575       H  0.99367967  0.89520672  0.80231449     0.13900
H1576       H  0.51668728  0.85751121  0.76341075     0.14400
C1577       C  0.39322708  0.78291815  0.86361083    -0.15200
C1578       C  0.39512223  0.80610575  0.88219888    -0.30300
H1579       H  0.39595586  0.76170774  0.87059227     0.13900
H1580       H  0.39190176  0.82703517  0.87523206     0.14400
C1581       C  0.38453085  0.87258997  0.71252105    -0.15200
C1582       C  0.36178061  0.86364370  0.69144621    -0.30300
H1583       H  0.39280991  0.89665667  0.72305812     0.13900
H1584       H  0.35320259  0.84002131  0.68014124     0.14400
C1585       C  0.19482180  0.90890767  0.86017297    -0.15200
C1586       C  0.20066223  0.90107831  0.88657083    -0.30300
H1587       H  0.21316734  0.91446989  0.84327221     0.13900
H1588       H  0.18263567  0.89626490  0.90358753     0.14400
C1589       C  0.21684078  0.80691309  0.95998882    -0.15200
C1590       C  0.18354678  0.78747891  0.95541611    -0.30300
H1591       H  0.22757664  0.80718576  0.98069086     0.13900
H1592       H  0.17295099  0.78902228  0.93512009     0.14400
C1593       C  0.29538142  0.79702698  0.83945627    -0.15200
C1594       C  0.30274089  0.80550474  0.81170315    -0.30300
H1595       H  0.29914122  0.77754655  0.84913240     0.13900
H1596       H  0.29951214  0.82589073  0.80318710     0.14400
C1597       C  0.37127084  0.88585858  0.94811390    -0.15200
C1598       C  0.35918907  0.86269696  0.96920632    -0.30300
H1599       H  0.39696202  0.89509756  0.94068181     0.13900
H1600       H  0.33253328  0.85075600  0.97462374     0.14400
C1601       C  0.34828403  0.99518905  0.88367365    -0.15200
C1602       C  0.37643523  0.51333877  0.87373188    -0.30300
H1603       H  0.33207638  0.00628715  0.88554867     0.13900
H1604       H  0.39624110  0.50671115  0.87477640     0.14400
C1605       C  0.30196021  0.91622752  0.78043736    -0.15200
C1606       C  0.27788516  0.89224186  0.79609274    -0.30300
H1607       H  0.32603035  0.93409782  0.78998167     0.13900
H1608       H  0.25423808  0.87370238  0.78635113     0.14400
C1609       C  0.30257515  0.59286703  0.60903400    -0.15200
C1610       C  0.29504895  0.59834478  0.63573822    -0.30300
H1611       H  0.28530209  0.58901101  0.59166487     0.13900
H1612       H  0.31209550  0.60171903  0.65317529     0.14400
C1613       C  0.40768423  0.69092117  0.53482903    -0.15200
C1614       C  0.41482805  0.72272041  0.54066086    -0.30300
H1615       H  0.39750026  0.68006680  0.51412043     0.13900
H1616       H  0.42316690  0.73271545  0.56194620     0.14400
C1617       C  0.99999533  0.63672160  0.52497150    -0.15200
C1618       C  0.49124657  0.61832540  0.54752317    -0.30300
H1619       H  0.98357361  0.64336490  0.51333727     0.13900
H1620       H  0.50775379  0.61066823  0.55774651     0.14400
C1621       C  0.00018242  0.70044967  0.67535892    -0.15200
C1622       C  0.50748608  0.70104258  0.65013187    -0.30300
H1623       H  0.97567150  0.69277980  0.68487079     0.13900
H1624       H  0.53184643  0.70573575  0.64212447     0.14400
C1625       C  0.36820232  0.98375592  0.62023464    -0.15200
C1626       C  0.38108327  0.51014496  0.62242029    -0.30300
H1627       H  0.39379504  0.99885783  0.62832207     0.13900
H1628       H  0.39644977  0.50868012  0.63944532     0.14400
C1629       C  0.40884730  0.60841583  0.71741853    -0.15200
C1630       C  0.39235616  0.61674132  0.69848596    -0.30300
H1631       H  0.43187342  0.60834967  0.71145463     0.13900
H1632       H  0.36926820  0.61669874  0.70442040     0.14400
O1633       O  0.96944995  0.12123169  0.07992485    -0.84100
O1634       O  0.97407031  0.14762681  0.13375562    -0.81100
C1635       C  0.97746426  0.17652520  0.13083418     0.99400
O1636       O  0.95637843  0.18043885  0.11656081    -0.81200
O1637       O  0.89880391  0.16417725  0.08527244    -0.83800
C1638       C  0.90088988  0.15905648  0.05891347     1.03900
O1639       O  0.90144500  0.13292574  0.05060061    -0.76600
O1640       O  0.92566152  0.08824471  0.05303775    -0.76800
C1641       C  0.95739805  0.10706769  0.05645722     1.03900
O1642       O  0.92127788  0.05623044  0.10072975    -0.84100
O1643       O  0.91989027  0.08603351  0.15095961    -0.81100
C1644       C  0.91557598  0.10503850  0.16775194     0.99400
O1645       O  0.91636475  0.13181008  0.15922377    -0.81200
O1646       O  0.86042448  0.11443895  0.12895956    -0.83800
C1647       C  0.83795465  0.09809557  0.11091081     1.03900
O1648       O  0.84543802  0.09094582  0.08687109    -0.76600
O1649       O  0.87027059  0.04666191  0.09405180    -0.76700
C1650       C  0.88994738  0.03645982  0.10259159     1.03800
Cr1651     Cr  0.94394751  0.10365575  0.11508612     1.93700
Cr1652     Cr  0.90830914  0.14524273  0.12073835     1.93200
Cr1653     Cr  0.88756745  0.09106648  0.07331973     1.39100
O1654       O  0.91326060  0.11376064  0.10281257    -1.21800
O1655       O  0.84627256  0.38471581  0.40803214    -0.84100
O1656       O  0.81660269  0.35512971  0.35724068    -0.81100
C1657       C  0.79518513  0.32476701  0.36224341     0.99400
O1658       O  0.77158951  0.31750038  0.37982253    -0.81200
O1659       O  0.72758735  0.32763363  0.41493546    -0.83800
C1660       C  0.73690997  0.33313418  0.44058731     1.03900
O1661       O  0.76307271  0.35990170  0.44771325    -0.76600
O1662       O  0.82908504  0.40665273  0.44176077    -0.76800
C1663       C  0.84591756  0.39251893  0.43378642     1.03900
O1664       O  0.85013385  0.44610492  0.38967565    -0.84100
O1665       O  0.81016285  0.41126543  0.34253327    -0.81100
C1666       C  0.78579474  0.38871833  0.32825856     0.99400
O1667       O  0.76627722  0.36016220  0.33865672    -0.81200
O1668       O  0.72967782  0.37468290  0.37334414    -0.83800
C1669       C  0.72583849  0.39294239  0.39121377     1.03900
O1670       O  0.74143560  0.40034181  0.41486490    -0.76600
O1671       O  0.80694551  0.44788611  0.40688674    -0.76700
C1672       C  0.83529806  0.46254100  0.39479607     1.03800
Cr1673     Cr  0.82773345  0.39818647  0.37601164     1.93700
Cr1674     Cr  0.75180456  0.34773899  0.37851136     1.93200
Cr1675     Cr  0.78563663  0.40239687  0.42540080     1.39100
O1676       O  0.78826515  0.38241974  0.39376503    -1.21800
O1677       O  0.90518135  0.35789780  0.25221167    -0.84100
O1678       O  0.84651188  0.32233264  0.28373649    -0.81100
C1679       C  0.82342659  0.29937027  0.29845053     0.99400
O1680       O  0.82246448  0.27157310  0.30193996    -0.81200
O1681       O  0.82099111  0.24465367  0.24788174    -0.83800
C1682       C  0.83152416  0.24011903  0.22428617     1.03900
O1683       O  0.86278564  0.25242777  0.21963148    -0.76600
O1684       O  0.88638942  0.32083843  0.21769982    -0.76800
C1685       C  0.89221868  0.34894609  0.22785091     1.03900
O1686       O  0.93976882  0.33936885  0.29223287    -0.84100
O1687       O  0.88327264  0.30909840  0.32567483    -0.81100
C1688       C  0.88078251  0.28182997  0.33447258     0.99400
O1689       O  0.87378314  0.25770422  0.31778965    -0.81200
O1690       O  0.86778383  0.22533866  0.26777101    -0.83800
C1691       C  0.89879649  0.23478179  0.26634742     1.03900
O1692       O  0.91914763  0.26310034  0.25542077    -0.76600
O1693       O  0.94783982  0.33200037  0.24738039    -0.76700
C1694       C  0.95949730  0.34341680  0.27186307     1.03800
Cr1695     Cr  0.89284634  0.32946328  0.28702470     1.93700
Cr1696     Cr  0.84855957  0.25275587  0.28253600     1.93200
Cr1697     Cr  0.90263480  0.29211302  0.23711528     1.39100
O1698       O  0.88139892  0.29149787  0.26893354    -1.21800
O1699       O  0.54439646  0.40623592  0.33486169    -0.84100
O1700       O  0.52095873  0.34754760  0.36556195    -0.81100
C1701       C  0.52040582  0.32418343  0.38009650     0.99400
O1702       O  0.54713824  0.32287635  0.38398080    -0.81200
O1703       O  0.57319722  0.32082453  0.32995380    -0.83800
C1704       C  0.58851038  0.33123776  0.30645103     1.03900
O1705       O  0.60665127  0.36250277  0.30163272    -0.76600
O1706       O  0.56147301  0.38596354  0.30054553    -0.76800
C1707       C  0.53927974  0.39177714  0.31107147     1.03900
O1708       O  0.59712147  0.43952840  0.37504688    -0.84100
O1709       O  0.57095435  0.38334942  0.40837120    -0.81100
C1710       C  0.59669198  0.38204815  0.41661861     0.99400
O1711       O  0.61295874  0.37409766  0.39971482    -0.81200
O1712       O  0.63898685  0.36759949  0.34991934    -0.83800
C1713       C  0.66046534  0.39849455  0.34782290     1.03900
O1714       O  0.65223180  0.41884331  0.33709679    -0.76600
O1715       O  0.61183956  0.44777018  0.33001944    -0.76700
C1716       C  0.61249777  0.45926478  0.35474006     1.03800
Cr1717     Cr  0.56012238  0.39325484  0.36956993     1.93700
Cr1718     Cr  0.59234370  0.34855112  0.36468402     1.93200
Cr1719     Cr  0.60662461  0.40246111  0.31932613     1.39100
O1720       O  0.58643529  0.38147585  0.35121978    -1.21800
O1721       O  0.64997951  0.11974733  0.16146914    -0.84100
O1722       O  0.67723500  0.14341920  0.10775123    -0.81100
C1723       C  0.70122082  0.17333656  0.11085067     0.99400
O1724       O  0.72561791  0.17948757  0.12690983    -0.81200
O1725       O  0.76619900  0.16792804  0.16319931    -0.83800
C1726       C  0.75570615  0.16732182  0.18834735     1.03900
O1727       O  0.72846102  0.14281271  0.19699497    -0.76600
O1728       O  0.66298233  0.09345673  0.19414553    -0.76800
C1729       C  0.64802042  0.10950594  0.18670417     1.03900
O1730       O  0.64150818  0.05498435  0.14748760    -0.84100
O1731       O  0.67572657  0.08142739  0.09766352    -0.81100
C1732       C  0.69973192  0.09964077  0.08120720     0.99400
O1733       O  0.72248761  0.12883030  0.08862250    -0.81200
O1734       O  0.75823592  0.11444412  0.12511840    -0.83800
C1735       C  0.76577060  0.10296765  0.14633377     1.03900
O1736       O  0.75184322  0.10091662  0.17025324    -0.76600
O1737       O  0.68517733  0.05188697  0.16202208    -0.76700
C1738       C  0.65606635  0.03788299  0.15119710     1.03800
Cr1739     Cr  0.66384775  0.10104149  0.12986812     1.93700
Cr1740     Cr  0.74049481  0.14554291  0.12760681     1.93200
Cr1741     Cr  0.70672375  0.09818703  0.17855229     1.39100
O1742       O  0.70381996  0.11535669  0.14558599    -1.21800
O1743       O  0.64012886  0.03063752  0.42326714    -0.84100
O1744       O  0.68566134  0.01930026  0.45181596    -0.81100
C1745       C  0.70788288  0.02261297  0.46915123     0.99400
O1746       O  0.73279276  0.05144331  0.47320580    -0.81200
O1747       O  0.75414550  0.07771234  0.41750319    -0.83800
C1748       C  0.75537632  0.09205131  0.39411414     1.03900
O1749       O  0.73966700  0.10845346  0.39083101    -0.76600
O1750       O  0.67182986  0.06301679  0.38841129    -0.76800
C1751       C  0.64709678  0.03560995  0.39706166     1.03900
O1752       O  0.64703654  0.07757452  0.46636455    -0.84100
O1753       O  0.68909779  0.06524925  0.49696073    -0.81100
C1754       C  0.72331522  0.09444955  0.00488490     0.99400
O1755       O  0.73688810  0.11225892  0.48827830    -0.81200
O1756       O  0.76809142  0.14142477  0.43825927    -0.83800
C1757       C  0.75602921  0.16087627  0.43906832     1.03900
O1758       O  0.72584825  0.15001992  0.43142002    -0.76600
O1759       O  0.65749839  0.10635332  0.42652197    -0.76700
C1760       C  0.64263962  0.09707952  0.45048247     1.03800
Cr1761     Cr  0.66816650  0.05051096  0.45808606     1.93700
Cr1762     Cr  0.74472750  0.09456564  0.45294404     1.93200
Cr1763     Cr  0.69897561  0.10538450  0.41137920     1.39100
O1764       O  0.70347997  0.08348767  0.44068574    -1.21800
O1765       O  0.53182077  0.14939068  0.24581327    -0.84100
O1766       O  0.53715851  0.17478161  0.19136825    -0.81100
C1767       C  0.53078454  0.19862459  0.19372651     0.99400
O1768       O  0.54760069  0.22268675  0.21045345    -0.81200
O1769       O  0.59876624  0.26521278  0.24663848    -0.83800
C1770       C  0.58920616  0.25564132  0.27199698     1.03900
O1771       O  0.58716413  0.22891544  0.28137510    -0.76600
O1772       O  0.56976018  0.16292918  0.27981714    -0.76800
C1773       C  0.53899470  0.14818422  0.27153617     1.03900
O1774       O  0.58817983  0.14000395  0.23476958    -0.84100
O1775       O  0.59756844  0.17287837  0.18348654    -0.81100
C1776       C  0.60214423  0.19596418  0.16634210     0.99400
O1777       O  0.59607326  0.21918570  0.17358809    -0.81200
O1778       O  0.64521168  0.25656310  0.20964028    -0.83800
C1779       C  0.66434337  0.26445192  0.23072777     1.03900
O1780       O  0.65271706  0.25078573  0.25485775    -0.76600
O1781       O  0.63467159  0.18358146  0.24887557    -0.76700
C1782       C  0.61973233  0.15447682  0.23815417     1.03800
Cr1783     Cr  0.56533192  0.16201201  0.21517859     1.93700
Cr1784     Cr  0.59643643  0.23835221  0.21182569     1.93200
Cr1785     Cr  0.60985560  0.20605812  0.26398194     1.39100
O1786       O  0.59037046  0.20233480  0.23057069    -1.21800
O1787       O  0.85618901  0.44819289  0.15916473    -0.84100
O1788       O  0.82595968  0.47843573  0.19088928    -0.81100
C1789       C  0.80482400  0.48048198  0.20709630     0.99400
O1790       O  0.77767499  0.45449380  0.21412483    -0.81200
O1791       O  0.73765188  0.41595608  0.16875191    -0.83800
C1792       C  0.73190043  0.39980059  0.14562322     1.03900
O1793       O  0.74634599  0.38300197  0.14008271    -0.76600
O1794       O  0.81350706  0.42888318  0.13050505    -0.76800
C1795       C  0.84320057  0.45150976  0.13681125     1.03900
O1796       O  0.84470689  0.40392223  0.20487671    -0.84100
O1797       O  0.82339692  0.43957808  0.23771764    -0.81100
C1798       C  0.79934491  0.41719610  0.25170459     0.99400
O1799       O  0.77218962  0.39622983  0.23962526    -0.81200
O1800       O  0.72922225  0.35684486  0.19793639    -0.83800
C1801       C  0.73744221  0.33502214  0.19155189     1.03900
O1802       O  0.76306309  0.34259137  0.17599689    -0.76600
O1803       O  0.83055762  0.38208909  0.16205236    -0.76700
C1804       C  0.84483120  0.38444369  0.18580886     1.03800
Cr1805     Cr  0.83435028  0.44025277  0.19698352     1.93700
Cr1806     Cr  0.75697739  0.40627567  0.20329359     1.93200
Cr1807     Cr  0.78894898  0.38614245  0.15429807     1.39100
O1808       O  0.79308967  0.41062721  0.18501929    -1.21800
O1809       O  0.60220048  0.14260182  0.50168860    -0.84100
O1810       O  0.65817379  0.18425615  0.03012979    -0.81100
C1811       C  0.67939315  0.20522185  0.04703658     0.99400
O1812       O  0.67802637  0.23138303  0.05326567    -0.81200
O1813       O  0.67432638  0.25857045  0.00051985    -0.83800
C1814       C  0.66223194  0.26096953  0.48035882     1.03900
O1815       O  0.63032988  0.24684895  0.47692084    -0.76600
O1816       O  0.60761330  0.18005873  0.46992728    -0.76800
C1817       C  0.60880867  0.15392806  0.47652311     1.03900
O1818       O  0.56384876  0.15579823  0.04755588    -0.84100
O1819       O  0.62091931  0.19055003  0.07789975    -0.81100
C1820       C  0.61994911  0.21586943  0.08796534     0.99400
O1821       O  0.62440479  0.24009147  0.07234437    -0.81200
O1822       O  0.62678371  0.27488751  0.02456147    -0.83800
C1823       C  0.59562235  0.26493360  0.02270007     1.03900
O1824       O  0.57452699  0.23096134  0.51672361    -0.76600
O1825       O  0.54812432  0.16276348  0.50707908    -0.76700
C1826       C  0.54105702  0.15239542  0.03070100     1.03800
Cr1827     Cr  0.61098502  0.17159641  0.03814262     1.93700
Cr1828     Cr  0.64866340  0.24834548  0.03628586     1.93200
Cr1829     Cr  0.59172938  0.20498212  0.49473629     1.39100
O1830       O  0.61662920  0.20921115  0.02262999    -1.21800
O1831       O  0.62658678  0.47301805  0.08568238    -0.84100
O1832       O  0.65538525  0.47613145  0.03288629    -0.81100
C1833       C  0.68276395  0.47572788  0.03500523     0.99400
O1834       O  0.68376196  0.45185338  0.04741387    -0.81200
O1835       O  0.66111790  0.39595254  0.08219447    -0.83800
C1836       C  0.65850193  0.40355541  0.10788654     1.03900
O1837       O  0.63435283  0.40797100  0.11546433    -0.76600
O1838       O  0.58857428  0.43066018  0.11076931    -0.76800
C1839       C  0.60956601  0.46191739  0.10818901     1.03900
O1840       O  0.56103814  0.42624223  0.06209982    -0.84100
O1841       O  0.59239591  0.42597537  0.01307844    -0.81100
C1842       C  0.59856569  0.40079195  0.49551260     0.99400
O1843       O  0.63312943  0.41398752  0.00597373    -0.81200
O1844       O  0.60880254  0.35862903  0.03902897    -0.83800
C1845       C  0.59581979  0.33824952  0.05917297     1.03900
O1846       O  0.59243294  0.34872456  0.08323863    -0.76600
O1847       O  0.54911889  0.37464556  0.07134483    -0.76700
C1848       C  0.54063254  0.39485575  0.06083873     1.03800
Cr1849     Cr  0.60948154  0.44817174  0.04973537     1.93700
Cr1850     Cr  0.64444599  0.40563996  0.04527467     1.93200
Cr1851     Cr  0.59250368  0.39209463  0.09294803     1.39100
O1852       O  0.61598791  0.41553098  0.06264383    -1.21800
O1853       O  0.87924254  0.03218886  0.32342020    -0.84100
O1854       O  0.85239327  0.03427898  0.27104135    -0.81100
C1855       C  0.82185384  0.02621111  0.27482864     0.99400
O1856       O  0.81427278  0.04300885  0.29164243    -0.81200
O1857       O  0.82381587  0.09549266  0.32831538    -0.83800
C1858       C  0.82724091  0.08903281  0.35388772     1.03900
O1859       O  0.85301628  0.08780486  0.36166975    -0.76600
O1860       O  0.90253868  0.07104319  0.35695632    -0.76800
C1861       C  0.88914338  0.04041869  0.34872948     1.03900
O1862       O  0.94166238  0.08956727  0.30814980    -0.84100
O1863       O  0.91108667  0.09612357  0.25966942    -0.81100
C1864       C  0.89065232  0.10002642  0.24426499     0.99400
O1865       O  0.86143517  0.09215093  0.25283683    -0.81200
O1866       O  0.87446735  0.14140948  0.28879214    -0.83800
C1867       C  0.88990947  0.16191577  0.30839672     1.03900
O1868       O  0.89399223  0.15172754  0.33243485    -0.76600
O1869       O  0.94273403  0.13469541  0.32414952    -0.76700
C1870       C  0.95781535  0.12081414  0.31298670     1.03800
Cr1871     Cr  0.89477663  0.06476440  0.29204657     1.93700
Cr1872     Cr  0.84587637  0.09254337  0.29221496     1.93200
Cr1873     Cr  0.89685170  0.10967324  0.34144890     1.39100
O1874       O  0.87865268  0.08860057  0.30897244    -1.21800
O1875       O  0.95994115  0.34825118  0.49407479    -0.84100
O1876       O  0.95676107  0.32094610  0.44072120    -0.81100
C1877       C  0.96328786  0.29726357  0.44357099     0.99400
O1878       O  0.94569896  0.27291230  0.45992935    -0.81200
O1879       O  0.89294969  0.23111051  0.49599424    -0.83800
C1880       C  0.90301359  0.23750297  0.02332435     1.03900
O1881       O  0.90545697  0.26453385  0.03288630    -0.76600
O1882       O  0.92302070  0.33188236  0.03270868    -0.76800
C1883       C  0.95435794  0.34812762  0.02633198     1.03900
O1884       O  0.90383505  0.35694618  0.47968026    -0.84100
O1885       O  0.89624837  0.32169805  0.43007636    -0.81100
C1886       C  0.89271862  0.29851549  0.41345108     0.99400
O1887       O  0.89836636  0.27539974  0.42163686    -0.81200
O1888       O  0.84777634  0.23896601  0.45730207    -0.83800
C1889       C  0.82784853  0.23209479  0.47782264     1.03900
O1890       O  0.84390312  0.24536744  0.00283268    -0.76600
O1891       O  0.86152983  0.31237439  0.99744318    -0.76700
C1892       C  0.87228940  0.34277584  0.48304188     1.03800
Cr1893     Cr  0.92740164  0.33398992  0.46254877     1.93700
Cr1894     Cr  0.89661217  0.25735197  0.46051985     1.93200
Cr1895     Cr  0.88520201  0.28933295  0.01421623     1.39100
O1896       O  0.90207346  0.29394860  0.47839275    -1.21800
C1897       C  0.98039959  0.36963217  0.04709847    -0.15200
C1898       C  0.50934314  0.38303550  0.04390164    -0.30300
H1899       H  0.99187536  0.39669381  0.04412501     0.13900
H1900       H  0.51105947  0.39889025  0.02599710     0.14400
C1901       C  0.58434014  0.28938784  0.02904004    -0.15200
C1902       C  0.58903683  0.30329143  0.05518001    -0.30300
H1903       H  0.57916882  0.30104531  0.01103897     0.13900
H1904       H  0.59357636  0.29112998  0.07318251     0.14400
C1905       C  0.70803870  0.39945496  0.12405663    -0.15200
C1906       C  0.68334755  0.40655170  0.12979846    -0.30300
H1907       H  0.70973870  0.39094870  0.10280073     0.13900
H1908       H  0.68066653  0.41382365  0.15127730     0.14400
C1909       C  0.81535759  0.51149317  0.22341740    -0.15200
C1910       C  0.79651510  0.99935273  0.25655476    -0.30300
H1911       H  0.83896912  0.53341998  0.21700944     0.13900
H1912       H  0.77639385  0.97679053  0.26640916     0.14400
C1913       C  0.71435483  0.29984767  0.20077624    -0.15200
C1914       C  0.69929914  0.29287086  0.22680714    -0.30300
H1915       H  0.70496758  0.28052607  0.18436906     0.13900
H1916       H  0.70973777  0.31163862  0.24363511     0.14400
C1917       C  0.61187141  0.19463869  0.13690435    -0.15200
C1918       C  0.61441901  0.21794950  0.11823503    -0.30300
H1919       H  0.61510916  0.17362751  0.13017951     0.13900
H1920       H  0.61147303  0.23907741  0.12517299     0.14400
C1921       C  0.99343942  0.14175597  0.30356495    -0.15200
C1922       C  0.51052910  0.12754276  0.29099151    -0.30300
H1923       H  0.00403171  0.16897369  0.30367524     0.13900
H1924       H  0.49789807  0.10028912  0.28807733     0.14400
C1925       C  0.77870283  0.19634181  0.44736827    -0.15200
C1926       C  0.79270825  0.20415516  0.47368674    -0.30300
H1927       H  0.79020261  0.21436459  0.43012134     0.13900
H1928       H  0.78099445  0.18638219  0.49107508     0.14400
C1929       C  0.80164568  0.08411974  0.37555150    -0.15200
C1930       C  0.77727334  0.09203240  0.37085733    -0.30300
H1931       H  0.80457439  0.07619269  0.39666136     0.13900
H1932       H  0.77526998  0.10148735  0.35016004     0.14400
C1933       C  0.62066535  0.13765377  0.45538977    -0.15200
C1934       C  0.61999680  0.10874325  0.46217473    -0.30300
H1935       H  0.63450169  0.15184753  0.43673278     0.13900
H1936       H  0.60602962  0.09533812  0.48110801     0.14400
C1937       C  0.69964369  0.99558843  0.48976790    -0.15200
C1938       C  0.71245504  0.50254789  0.02035364    -0.30300
H1939       H  0.69365701  0.47080951  0.47375507     0.13900
H1940       H  0.71718850  0.02363761  0.01987641     0.14400
C1941       C  0.64044621  0.00255764  0.14077616    -0.15200
C1942       C  0.61336692  0.48637491  0.13038127    -0.30300
H1943       H  0.65483843  0.98954734  0.14301952     0.13900
H1944       H  0.59393761  0.49341884  0.13236021     0.16800
C1945       C  0.72529547  0.10537858  0.03435449    -0.15200
C1946       C  0.70015061  0.08729179  0.05267399    -0.30300
H1947       H  0.74663431  0.12945441  0.04059036     0.13900
H1948       H  0.67881972  0.06323009  0.04638028     0.14400
C1949       C  0.69919433  0.19455495  0.06428005    -0.15200
C1950       C  0.70179960  0.19971216  0.09265149    -0.30300
H1951       H  0.70255268  0.17429511  0.05559405     0.13900
H1952       H  0.69707984  0.21858092  0.10238655     0.14400
C1953       C  0.62629706  0.11506923  0.20666070    -0.15200
C1954       C  0.63935180  0.13896225  0.22702422    -0.30300
H1955       H  0.60020435  0.10519661  0.20018646     0.13900
H1956       H  0.66623608  0.15127171  0.23156479     0.14400
C1957       C  0.58830572  0.30760408  0.28491642    -0.15200
C1958       C  0.58187761  0.27645005  0.29171980    -0.30300
H1959       H  0.59799273  0.31762252  0.26384950     0.13900
H1960       H  0.57366816  0.26698230  0.31318896     0.14400
C1961       C  0.98895112  0.29727191  0.42457100    -0.15200
C1962       C  0.48979947  0.30263352  0.39644334    -0.30300
H1963       H  0.01133447  0.29848191  0.43384476     0.13900
H1964       H  0.46645225  0.30033950  0.38818161     0.14400
C1965       C  0.63208958  0.49587590  0.36061911    -0.15200
C1966       C  0.62529818  0.00769472  0.37726269    -0.30300
H1967       H  0.65675931  0.51068801  0.35078375     0.13900
H1968       H  0.59959797  0.99102543  0.38447460     0.14400
C1969       C  0.60726883  0.38884855  0.44638526    -0.15200
C1970       C  0.58778177  0.39219192  0.46596894    -0.30300
H1971       H  0.63139542  0.39118439  0.45225212     0.13900
H1972       H  0.56352060  0.38951583  0.46003891     0.14400
C1973       C  0.90939680  0.21099846  0.27662635    -0.15200
C1974       C  0.90013150  0.19758611  0.30305340    -0.30300
H1975       H  0.91682306  0.19861836  0.26070965     0.13900
H1976       H  0.89359488  0.21047143  0.31917575     0.14400
C1977       C  0.80796243  0.21811816  0.20236414    -0.15200
C1978       C  0.77627921  0.19439306  0.20863252    -0.30300
H1979       H  0.81832633  0.21856902  0.18139482     0.13900
H1980       H  0.76633542  0.19294279  0.22996438     0.14400
C1981       C  0.50594597  0.38034270  0.29787276    -0.15200
C1982       C  0.99641119  0.36110927  0.27705999    -0.30300
H1983       H  0.48962722  0.38783114  0.30880119     0.13900
H1984       H  0.01208034  0.35366740  0.26508626     0.14400
C1985       C  0.88483585  0.27793222  0.36469776    -0.15200
C1986       C  0.88488271  0.29995364  0.38365630    -0.30300
H1987       H  0.88807118  0.25693219  0.37139390     0.13900
H1988       H  0.88097503  0.32053484  0.37692332     0.14400
C1989       C  0.88314662  0.37210135  0.21330954    -0.15200
C1990       C  0.86100901  0.36367279  0.19175507    -0.30300
H1991       H  0.89148543  0.39611829  0.22395394     0.13900
H1992       H  0.85233533  0.34006179  0.18040552     0.14400
C1993       C  0.69506398  0.40900395  0.35728062    -0.15200
C1994       C  0.70043613  0.40303489  0.38448214    -0.30300
H1995       H  0.71357125  0.41308882  0.34088090     0.13900
H1996       H  0.68222416  0.39955710  0.40096498     0.14400
C1997       C  0.71642191  0.30831697  0.46278966    -0.15200
C1998       C  0.68453890  0.28359538  0.45776311    -0.30300
H1999       H  0.72691689  0.31172011  0.48408948     0.13900
H2000       H  0.67346316  0.28151250  0.43686969     0.14400
C2001       C  0.79609519  0.29960196  0.34334761    -0.15200
C2002       C  0.80149889  0.30756108  0.31536158    -0.30300
H2003       H  0.80016702  0.28007324  0.35250513     0.13900
H2004       H  0.79837281  0.32820754  0.30737500     0.14400
C2005       C  0.86671161  0.38547389  0.45400891    -0.15200
C2006       C  0.85280982  0.35881190  0.47201992    -0.30300
H2007       H  0.89345569  0.39700563  0.44907528     0.13900
H2008       H  0.82559264  0.34539034  0.47509190     0.14400
C2009       C  0.84958410  0.49807845  0.38470947    -0.15200
C2010       C  0.88605019  0.01335620  0.36783534    -0.30300
H2011       H  0.83283815  0.50865218  0.38475282     0.13900
H2012       H  0.89595816  0.99768261  0.35972289     0.14400
C2013       C  0.80401361  0.41656619  0.28237103    -0.15200
C2014       C  0.77991601  0.39339043  0.29862810    -0.30300
H2015       H  0.82830288  0.43451602  0.29149930     0.13900
H2016       H  0.75601888  0.37487430  0.28924548     0.14400
C2017       C  0.80310689  0.09054766  0.11704395    -0.15200
C2018       C  0.79360946  0.09544089  0.14314596    -0.30300
H2019       H  0.78653391  0.08571913  0.09890966     0.13900
H2020       H  0.80926841  0.09880738  0.16163948     0.14400
C2021       C  0.90175679  0.18345704  0.03714695    -0.15200
C2022       C  0.90457794  0.21351313  0.04413500    -0.30300
H2023       H  0.89965887  0.17629602  0.01485538     0.13900
H2024       H  0.90714691  0.22064630  0.06646207     0.14400
C2025       C  0.50611124  0.13027414  0.04090203    -0.15200
C2026       C  0.98175960  0.11106655  0.03436949    -0.30300
H2027       H  0.50406597  0.11414161  0.05868825     0.13900
H2028       H  0.99497488  0.09704811  0.03779558     0.14400
C2029       C  0.50631006  0.19940180  0.17418235    -0.15200
C2030       C  0.00335792  0.20362821  0.14827547    -0.30300
H2031       H  0.48444359  0.19962988  0.18316924     0.13900
H2032       H  0.02886579  0.21617610  0.13967263     0.14400
C2033       C  0.86366677  0.48334331  0.12082386    -0.15200
C2034       C  0.87792667  0.00341678  0.11730370    -0.30300
H2035       H  0.88954442  0.49854225  0.12829594     0.13900
H2036       H  0.89574285  0.00172960  0.13160041     0.14400
C2037       C  0.89943208  0.11167571  0.21529398    -0.15200
C2038       C  0.91089528  0.09661116  0.19784787    -0.30300
H2039       H  0.89224505  0.12956122  0.20728319     0.13900
H2040       H  0.91514871  0.07656590  0.20556952     0.14400
O2041       O  0.96253893  0.10623727  0.58019223    -0.84100
O2042       O  0.97908314  0.16240997  0.61187151    -0.81100
C2043       C  0.97772088  0.18157145  0.63023676     0.99400
O2044       O  0.94976065  0.18006012  0.63489542    -0.81200
O2045       O  0.92068369  0.17859129  0.58015283    -0.83800
C2046       C  0.90407133  0.16654013  0.55737696     1.03900
O2047       O  0.88686238  0.13475061  0.55348019    -0.76600
O2048       O  0.93178865  0.11259511  0.54755939    -0.76800
C2049       C  0.95889139  0.11377784  0.55500629     1.03900
O2050       O  0.91555542  0.06646322  0.62367479    -0.84100
O2051       O  0.93311580  0.12074625  0.65681865    -0.81100
C2052       C  0.90632761  0.11952940  0.66614330     0.99400
O2053       O  0.88750555  0.12506744  0.65019669    -0.81200
O2054       O  0.85727567  0.12955215  0.60204296    -0.83800
C2055       C  0.83693612  0.09828896  0.60123956     1.03900
O2056       O  0.84656748  0.07842147  0.59219144    -0.76600
O2057       O  0.88889115  0.05214851  0.58273901    -0.76700
C2058       C  0.89685064  0.04417430  0.60627624     1.03800
Cr2059     Cr  0.94530169  0.11445457  0.61677495     1.93700
Cr2060     Cr  0.90482957  0.15129950  0.61532188     1.93200
Cr2061     Cr  0.89019297  0.09599704  0.57113354     1.39100
O2062       O  0.91339631  0.12021521  0.60101517    -1.21800
O2063       O  0.84900512  0.37610452  0.90683257    -0.84100
O2064       O  0.81546156  0.34259002  0.85805830    -0.81100
C2065       C  0.79119618  0.31351669  0.86422351     0.99400
O2066       O  0.76724896  0.31002407  0.87997741    -0.81200
O2067       O  0.72843404  0.32877499  0.91312168    -0.83800
C2068       C  0.73930692  0.33047930  0.93810396     1.03900
O2069       O  0.76830911  0.35358470  0.94482892    -0.76600
O2070       O  0.83440564  0.40097421  0.93974327    -0.76800
C2071       C  0.85021171  0.38582220  0.93220966     1.03900
O2072       O  0.85437021  0.43789369  0.88534521    -0.84100
O2073       O  0.81519865  0.40223183  0.83896170    -0.81100
C2074       C  0.79005473  0.38047600  0.82503281     0.99400
O2075       O  0.76914264  0.35313351  0.83641629    -0.81200
O2076       O  0.73943202  0.37785416  0.87026008    -0.83800
C2077       C  0.73361786  0.39250831  0.89020106     1.03900
O2078       O  0.74726291  0.39574129  0.91444142    -0.76600
O2079       O  0.81365175  0.44219091  0.90604099    -0.76700
C2080       C  0.84119065  0.45551933  0.89262765     1.03800
Cr2081     Cr  0.83081496  0.38889436  0.87381245     1.93700
Cr2082     Cr  0.75407483  0.34496476  0.87655513     1.93200
Cr2083     Cr  0.79123267  0.39679689  0.92385017     1.39100
O2084       O  0.79229517  0.37670191  0.89175394    -1.21800
O2085       O  0.86888832  0.34323918  0.75750067    -0.84100
O2086       O  0.84293208  0.31213540  0.80972275    -0.81100
C2087       C  0.81461093  0.28725844  0.80392614     0.99400
O2088       O  0.81244566  0.26569302  0.78616622    -0.81200
O2089       O  0.83308441  0.23174339  0.75005874    -0.83800
C2090       C  0.83963505  0.24135366  0.72444791     1.03900
O2091       O  0.86545036  0.26888061  0.71794144    -0.76600
O2092       O  0.90232659  0.33735761  0.72639477    -0.76800
C2093       C  0.88307516  0.34916034  0.73338148     1.03900
O2094       O  0.93363871  0.36159583  0.77608064    -0.84100
O2095       O  0.90587403  0.32027566  0.82396175    -0.81100
C2096       C  0.88778627  0.29348063  0.83788429     0.99400
O2097       O  0.86098110  0.26949604  0.82764395    -0.81200
O2098       O  0.88183953  0.23932334  0.79224971    -0.83800
C2099       C  0.90329171  0.23987446  0.77531480     1.03900
O2100       O  0.91137347  0.25754714  0.75278223    -0.76600
O2101       O  0.94884859  0.32558539  0.76343776    -0.76700
C2102       C  0.95604895  0.35347128  0.77454908     1.03800
Cr2103     Cr  0.88725236  0.33138619  0.79032523     1.93700
Cr2104     Cr  0.84947685  0.25475076  0.78736401     1.93200
Cr2105     Cr  0.90519813  0.29725527  0.74242702     1.39100
O2106       O  0.88025665  0.29404515  0.77289773    -1.21800
O2107       O  0.52875049  0.37690681  0.84221978    -0.84100
O2108       O  0.53155915  0.34783339  0.89271090    -0.81100
C2109       C  0.52476174  0.31791313  0.88766310     0.99400
O2110       O  0.54276676  0.31203511  0.87080772    -0.81200
O2111       O  0.59674391  0.32558477  0.83451761    -0.83800
C2112       C  0.58971065  0.32858012  0.80901210     1.03900
O2113       O  0.58589665  0.35306609  0.80176523    -0.76600
O2114       O  0.56655850  0.40107861  0.80795917    -0.76800
C2115       C  0.53618261  0.38735845  0.81696970     1.03900
O2116       O  0.58509654  0.43915391  0.85910699    -0.84100
O2117       O  0.59252521  0.40743584  0.90612629    -0.81100
C2118       C  0.59683126  0.38685794  0.92093179     0.99400
O2119       O  0.58966121  0.35831062  0.91128113    -0.81200
O2120       O  0.63991504  0.37605145  0.87486417    -0.83800
C2121       C  0.65985930  0.39127705  0.85484342     1.03900
O2122       O  0.64908358  0.39517353  0.83104553    -0.76600
O2123       O  0.63024042  0.44243786  0.84034907    -0.76700
C2124       C  0.61617629  0.45616538  0.85352500     1.03800
Cr2125     Cr  0.56128662  0.39169095  0.87347371     1.93700
Cr2126     Cr  0.59167578  0.34537865  0.87114212     1.93200
Cr2127     Cr  0.60625742  0.39664462  0.82267226     1.39100
O2128       O  0.58596111  0.37745347  0.85529860    -1.21800
O2129       O  0.65742256  0.12116132  0.66858248    -0.84100
O2130       O  0.67759694  0.14220022  0.61292579    -0.81100
C2131       C  0.70212929  0.17200978  0.61450389     0.99400
O2132       O  0.72782514  0.17829708  0.62888057    -0.81200
O2133       O  0.77228944  0.16765412  0.66151903    -0.83800
C2134       C  0.76477848  0.16617492  0.68773832     1.03900
O2135       O  0.73838339  0.14160279  0.69754782    -0.76600
O2136       O  0.67284683  0.09444633  0.69872428    -0.76800
C2137       C  0.66036535  0.11340166  0.69381595     1.03900
O2138       O  0.64490911  0.05463228  0.65352912    -0.84100
O2139       O  0.67358452  0.07950858  0.60136144    -0.81100
C2140       C  0.69608515  0.09721789  0.58349503     0.99400
O2141       O  0.72013507  0.12625246  0.58996233    -0.81200
O2142       O  0.75990231  0.11296089  0.62244897    -0.83800
C2143       C  0.76863650  0.10072699  0.64234774     1.03900
O2144       O  0.75694795  0.09860217  0.66720358    -0.76600
O2145       O  0.68962649  0.05097688  0.66288482    -0.76700
C2146       C  0.65949581  0.03726250  0.65444597     1.03800
Cr2147     Cr  0.66611666  0.10041040  0.63523939     1.93700
Cr2148     Cr  0.74257089  0.14421178  0.62749819     1.93200
Cr2149     Cr  0.71370805  0.09721151  0.67933137     1.39100
O2150       O  0.70772049  0.11439404  0.64754422    -1.21800
O2151       O  0.64185634  0.04211304  0.92749836    -0.84100
O2152       O  0.68506991  0.02191359  0.94916660    -0.81100
C2153       C  0.70819318  0.02218449  0.96375617     0.99400
O2154       O  0.73537075  0.04964868  0.96744007    -0.81200
O2155       O  0.75628395  0.07939777  0.91287273    -0.83800
C2156       C  0.75820864  0.09578378  0.89054759     1.03900
O2157       O  0.74291624  0.11278226  0.88917624    -0.76600
O2158       O  0.67495812  0.06655468  0.89103883    -0.76800
C2159       C  0.64877801  0.04208656  0.90154204     1.03900
O2160       O  0.66095112  0.08948119  0.97240569    -0.84100
O2161       O  0.69846923  0.06675544  0.99697656    -0.81100
C2162       C  0.71367588  0.09328985  0.50511236     0.99400
O2163       O  0.74619893  0.11281377  0.98759915    -0.81200
O2164       O  0.77368836  0.14306680  0.93722693    -0.83800
C2165       C  0.76238741  0.16326843  0.93854605     1.03900
O2166       O  0.73217146  0.15367120  0.93173747    -0.76600
O2167       O  0.66280442  0.11088377  0.93016585    -0.76700
C2168       C  0.65310742  0.10619503  0.95611174     1.03800
Cr2169     Cr  0.67399850  0.05696140  0.95994306     1.93700
Cr2170     Cr  0.74999128  0.09539093  0.95027164     1.93200
Cr2171     Cr  0.70343504  0.10949493  0.91233028     1.39100
O2172       O  0.70906557  0.08746118  0.94080285    -1.21800
O2173       O  0.52653713  0.14910885  0.74886363    -0.84100
O2174       O  0.52860168  0.17052843  0.69255311    -0.81100
C2175       C  0.52386694  0.19536112  0.69382603     0.99400
O2176       O  0.54216148  0.21983883  0.70983130    -0.81200
O2177       O  0.59532739  0.26116380  0.74594708    -0.83800
C2178       C  0.59268007  0.25413019  0.77233526     1.03900
O2179       O  0.59293130  0.22819365  0.78137084    -0.76600
O2180       O  0.56780866  0.15992396  0.77927586    -0.76800
C2181       C  0.53638883  0.14680776  0.77347585     1.03900
O2182       O  0.57629560  0.13275793  0.73515887    -0.84100
O2183       O  0.58532713  0.16408120  0.68290291    -0.81100
C2184       C  0.59220820  0.18794087  0.66585463     0.99400
O2185       O  0.58900100  0.21309390  0.67294100    -0.81200
O2186       O  0.64046816  0.25287088  0.70692738    -0.83800
C2187       C  0.66139354  0.25789376  0.72625645     1.03900
O2188       O  0.65188041  0.24204245  0.74961958    -0.76600
O2189       O  0.62705683  0.17316057  0.74206587    -0.76700
C2190       C  0.60731710  0.14354323  0.73348154     1.03800
Cr2191     Cr  0.55617143  0.15715780  0.71605544     1.93700
Cr2192     Cr  0.59121349  0.23397806  0.71077729     1.93200
Cr2193     Cr  0.60827369  0.20029999  0.76078494     1.39100
O2194       O  0.58512475  0.19776165  0.72954156    -1.21800
O2195       O  0.85040257  0.44878472  0.65420220    -0.84100
O2196       O  0.81796483  0.47455249  0.68778865    -0.81100
C2197       C  0.79848179  0.47538331  0.70645326     0.99400
O2198       O  0.77298336  0.44846270  0.71450546    -0.81200
O2199       O  0.73464784  0.41062291  0.66755299    -0.83800
C2200       C  0.72837251  0.39359650  0.64478973     1.03900
O2201       O  0.74164044  0.37547502  0.64009160    -0.76600
O2202       O  0.80653863  0.42194293  0.62711429    -0.76800
C2203       C  0.83464837  0.44787220  0.63194156     1.03900
O2204       O  0.84594087  0.40698715  0.70047623    -0.84100
O2205       O  0.82107315  0.43684002  0.73470090    -0.81100
C2206       C  0.79884719  0.41252516  0.74884922     0.99400
O2207       O  0.77136440  0.39094655  0.73735177    -0.81200
O2208       O  0.72693977  0.35134751  0.69547283    -0.83800
C2209       C  0.73563240  0.32981217  0.68931850     1.03900
O2210       O  0.76263365  0.33832296  0.67555063    -0.76600
O2211       O  0.82939516  0.38034426  0.65968526    -0.76700
C2212       C  0.84538286  0.38582917  0.68298946     1.03800
Cr2213     Cr  0.83081419  0.43944517  0.69315391     1.93700
Cr2214     Cr  0.75406846  0.40081308  0.70192829     1.93200
Cr2215     Cr  0.78585666  0.38113177  0.65276808     1.39100
O2216       O  0.79015848  0.40679990  0.68279273    -1.21800
O2217       O  0.59908808  0.14494221  0.00213217    -0.84100
O2218       O  0.65959400  0.18199964  0.53200386    -0.81100
C2219       C  0.67963010  0.20262927  0.54978482     0.99400
O2220       O  0.67726022  0.22821616  0.55602715    -0.81200
O2221       O  0.67466186  0.25696508  0.50311075    -0.83800
C2222       C  0.66203495  0.26250074  0.97772124     1.03900
O2223       O  0.63024963  0.24917703  0.97446225    -0.76600
O2224       O  0.60778301  0.18231756  0.96948186    -0.76800
C2225       C  0.60858009  0.15634034  0.97727945     1.03900
O2226       O  0.56386792  0.14946229  0.54690194    -0.84100
O2227       O  0.61894099  0.18509860  0.57873103    -0.81100
C2228       C  0.61623948  0.20954432  0.58865479     0.99400
O2229       O  0.62188046  0.23448672  0.57356857    -0.81200
O2230       O  0.62553771  0.27088167  0.52707354    -0.83800
C2231       C  0.59420407  0.26015006  0.52615008     1.03900
O2232       O  0.57538489  0.23554813  0.01390093    -0.76600
O2233       O  0.54832855  0.16682204  0.00647273    -0.76700
C2234       C  0.54095647  0.14670276  0.53055538     1.03800
Cr2235     Cr  0.61164681  0.16761826  0.53851198     1.93700
Cr2236     Cr  0.64774592  0.24462336  0.53845598     1.93200
Cr2237     Cr  0.59187136  0.20820341  0.99315896     1.39100
O2238       O  0.61667860  0.20544425  0.52379768    -1.21800
O2239       O  0.61823465  0.46896535  0.57651533    -0.84100
O2240       O  0.64435555  0.46467710  0.52425079    -0.81100
C2241       C  0.67347234  0.46807723  0.52794099     0.99400
O2242       O  0.67730769  0.44750140  0.54304098    -0.81200
O2243       O  0.66085189  0.39415392  0.57999937    -0.83800
C2244       C  0.66066441  0.40458980  0.60511960     1.03900
O2245       O  0.63803785  0.41106411  0.61273271    -0.76600
O2246       O  0.59042750  0.43039655  0.60918917    -0.76800
C2247       C  0.60718449  0.46119473  0.60158219     1.03900
O2248       O  0.55254552  0.41435695  0.56058618    -0.84100
O2249       O  0.58037846  0.40659002  0.51201425    -0.81100
C2250       C  0.60903696  0.41776984  0.99683165     0.99400
O2251       O  0.62637951  0.40393081  0.50387541    -0.81200
O2252       O  0.60628236  0.35247873  0.54069698    -0.83800
C2253       C  0.59569068  0.33405236  0.56226377     1.03900
O2254       O  0.59449574  0.34661309  0.58613044    -0.76600
O2255       O  0.54746736  0.36748198  0.57733596    -0.76700
C2256       C  0.53442846  0.38308482  0.56557866     1.03800
Cr2257     Cr  0.59989412  0.43686308  0.54468959     1.93700
Cr2258     Cr  0.64060077  0.40015375  0.54351159     1.93200
Cr2259     Cr  0.59361713  0.39023661  0.59398709     1.39100
O2260       O  0.61188281  0.40958694  0.56099980    -1.21800
O2261       O  0.87952629  0.03265892  0.82305001    -0.84100
O2262       O  0.86144786  0.04083495  0.76870292    -0.81100
C2263       C  0.83139663  0.03524292  0.76971793     0.99400
O2264       O  0.82341356  0.05162854  0.78658964    -0.81200
O2265       O  0.83152716  0.10253883  0.82470809    -0.83800
C2266       C  0.83077881  0.09266198  0.85011660     1.03900
O2267       O  0.85430522  0.08845003  0.85943440    -0.76600
O2268       O  0.90189802  0.06883878  0.85860114    -0.76800
C2269       C  0.88752681  0.03878411  0.84891246     1.03900
O2270       O  0.94531183  0.08782173  0.81467652    -0.84100
O2271       O  0.92438123  0.10062683  0.76336170    -0.81100
C2272       C  0.90661129  0.10547191  0.74558462     0.99400
O2273       O  0.87748480  0.10045299  0.75223110    -0.81200
O2274       O  0.88907720  0.14828103  0.78971070    -0.83800
C2275       C  0.90120439  0.16665205  0.81113408     1.03900
O2276       O  0.90108257  0.15390649  0.83520041    -0.76600
O2277       O  0.94829509  0.13389387  0.83049301    -0.76700
C2278       C  0.96264435  0.11881624  0.82021158     1.03800
Cr2279     Cr  0.90143006  0.06720589  0.79377991     1.93700
Cr2280     Cr  0.85731586  0.10007162  0.79020876     1.93200
Cr2281     Cr  0.90049369  0.10997091  0.84360815     1.39100
O2282       O  0.88587689  0.09206299  0.80951659    -1.21800
O2283       O  0.96425236  0.34768841  0.00138776    -0.84100
O2284       O  0.96506897  0.32540593  0.94696584    -0.81100
C2285       C  0.97118770  0.30135869  0.94831279     0.99400
O2286       O  0.95258957  0.27545703  0.96283801    -0.81200
O2287       O  0.89791062  0.23052117  0.99689984    -0.83800
C2288       C  0.90108268  0.24083137  0.52149974     1.03900
O2289       O  0.90267839  0.26772805  0.53018848    -0.76600
O2290       O  0.92091955  0.33436129  0.52727338    -0.76800
C2291       C  0.95190839  0.34991888  0.51949290     1.03900
O2292       O  0.90869644  0.35690180  0.98622439    -0.84100
O2293       O  0.90560690  0.32730194  0.93498203    -0.81100
C2294       C  0.90343957  0.30601359  0.91693291     0.99400
O2295       O  0.90733698  0.28134253  0.92408817    -0.81200
O2296       O  0.85470811  0.24165826  0.95794135    -0.83800
C2297       C  0.83417001  0.23278811  0.97824414     1.03900
O2298       O  0.83860123  0.24652282  0.50178794    -0.76600
O2299       O  0.85722684  0.31379795  0.49415200    -0.76700
C2300       C  0.87690117  0.34174650  0.98718374     1.03800
Cr2301     Cr  0.93407569  0.33622331  0.96867500     1.93700
Cr2302     Cr  0.90347353  0.25979898  0.96232044     1.93200
Cr2303     Cr  0.88127250  0.29106573  0.51105823     1.39100
O2304       O  0.90796303  0.29486585  0.98206437    -1.21800
C2305       C  0.97967715  0.37247676  0.53900031    -0.15200
C2306       C  0.49857118  0.36393681  0.55605124    -0.30300
H2307       H  0.99432366  0.39874026  0.53262087     0.13900
H2308       H  0.48415718  0.33728243  0.56134658     0.14400
C2309       C  0.58191785  0.28346115  0.53396344    -0.15200
C2310       C  0.58952322  0.29917337  0.55951508    -0.30300
H2311       H  0.57290519  0.29281641  0.51676247     0.13900
H2312       H  0.59755708  0.28916407  0.57694132     0.14400
C2313       C  0.70503943  0.39346447  0.62291919    -0.15200
C2314       C  0.68581562  0.40779827  0.62658845    -0.30300
H2315       H  0.70275577  0.37980445  0.60331145     0.13900
H2316       H  0.68700388  0.42039528  0.64655713     0.14400
C2317       C  0.81028933  0.50566149  0.72416483    -0.15200
C2318       C  0.80756836  0.01210425  0.74851151    -0.30300
H2319       H  0.83245950  0.52845022  0.71668392     0.13900
H2320       H  0.78411701  0.99081938  0.75599938     0.14400
C2321       C  0.71145376  0.29414715  0.69629664    -0.15200
C2322       C  0.69665638  0.28561334  0.72225809    -0.30300
H2323       H  0.70085045  0.27654634  0.67865778     0.13900
H2324       H  0.70825102  0.30281359  0.74003536     0.14400
C2325       C  0.60236132  0.18593866  0.63676157    -0.15200
C2326       C  0.60741979  0.21017647  0.61822484    -0.30300
H2327       H  0.60503177  0.16448800  0.63040868     0.13900
H2328       H  0.60465729  0.23152770  0.62478842     0.14400
C2329       C  0.99871661  0.13800749  0.81204148    -0.15200
C2330       C  0.51029935  0.12608463  0.79438122    -0.30300
H2331       H  0.01204460  0.16515277  0.81528865     0.13900
H2332       H  0.49709934  0.09901558  0.79085455     0.14400
C2333       C  0.78587044  0.19821238  0.94700623    -0.15200
C2334       C  0.79954436  0.20481226  0.97330213    -0.30300
H2335       H  0.79743895  0.21673861  0.93011353     0.13900
H2336       H  0.78758971  0.18638631  0.99023783     0.14400
C2337       C  0.80318460  0.08663492  0.87030170    -0.15200
C2338       C  0.78084007  0.09759214  0.86678360    -0.30300
H2339       H  0.80321446  0.07480676  0.89036665     0.13900
H2340       H  0.78136108  0.11076240  0.84737414     0.14400
C2341       C  0.62303420  0.14047661  0.95817449    -0.15200
C2342       C  0.63204989  0.11897554  0.96936865    -0.30300
H2343       H  0.63008666  0.14944843  0.93648070     0.13900
H2344       H  0.62552196  0.11152558  0.99149409     0.14400
C2345       C  0.69912593  0.99345620  0.98270316    -0.15200
C2346       C  0.70237887  0.49581189  0.51327516    -0.30300
H2347       H  0.70364038  0.47560991  0.98201060     0.13900
H2348       H  0.71283674  0.02808343  0.52551802     0.14400
C2349       C  0.64308639  0.00226043  0.64316393    -0.15200
C2350       C  0.61291924  0.48897577  0.62111227    -0.30300
H2351       H  0.65878626  0.99057333  0.64125499     0.13900
H2352       H  0.60325210  0.50532050  0.61432978     0.16800
C2353       C  0.71626868  0.10383719  0.53472215    -0.15200
C2354       C  0.69349868  0.08477934  0.55439765    -0.30300
H2355       H  0.73741262  0.12837539  0.54032811     0.13900
H2356       H  0.67240868  0.06015380  0.54895131     0.14400
C2357       C  0.69932830  0.19226219  0.56763062    -0.15200
C2358       C  0.70176079  0.19773183  0.59599453    -0.30300
H2359       H  0.70340915  0.17234311  0.55918196     0.13900
H2360       H  0.69599962  0.21602687  0.60546941     0.14400
C2361       C  0.64952709  0.12728309  0.71736573    -0.15200
C2362       C  0.61847302  0.12320393  0.71714754    -0.30300
H2363       H  0.66811992  0.14374684  0.73302054     0.13900
H2364       H  0.60018392  0.10523106  0.70195659     0.14400
C2365       C  0.58769836  0.30416764  0.78703974    -0.15200
C2366       C  0.59060777  0.27700778  0.79372609    -0.30300
H2367       H  0.58510473  0.30934803  0.76489755     0.13900
H2368       H  0.59255923  0.27168131  0.81597493     0.14400
C2369       C  0.99728199  0.30284781  0.92908660    -0.15200
C2370       C  0.49792926  0.29120038  0.90473921    -0.30300
H2371       H  0.02220959  0.31099052  0.93785520     0.13900
H2372       H  0.47359412  0.27605610  0.89448387     0.14400
C2373       C  0.63667862  0.49138309  0.86413103    -0.15200
C2374       C  0.62619357  0.01168362  0.88512409    -0.30300
H2375       H  0.66313792  0.50560144  0.85801395     0.13900
H2376       H  0.60230580  0.99453446  0.89537513     0.14400
C2377       C  0.60883678  0.39480682  0.95013881    -0.15200
C2378       C  0.60042240  0.41325958  0.96664078    -0.30300
H2379       H  0.62188021  0.38245131  0.95906926     0.13900
H2380       H  0.58491839  0.42324314  0.95828054     0.14400
C2381       C  0.91588171  0.21639777  0.78147178    -0.15200
C2382       C  0.91160117  0.20259707  0.80781160    -0.30300
H2383       H  0.92117091  0.20490649  0.76334683     0.13900
H2384       H  0.90811042  0.21511537  0.82614843     0.14400
C2385       C  0.81691708  0.21926446  0.70168369    -0.15200
C2386       C  0.78725444  0.19195135  0.70831466    -0.30300
H2387       H  0.82496461  0.22481336  0.67961310     0.13900
H2388       H  0.77930727  0.18724064  0.73047599     0.14400
C2389       C  0.50817541  0.38475232  0.79943495    -0.15200
C2390       C  0.98812786  0.37519371  0.78950056    -0.30300
H2391       H  0.49089380  0.39061875  0.81073803     0.13900
H2392       H  0.98622623  0.38890173  0.80772274     0.14400
C2393       C  0.89631473  0.28981000  0.86692588    -0.15200
C2394       C  0.89847824  0.31140369  0.88704944    -0.30300
H2395       H  0.89647323  0.26678745  0.87246072     0.13900
H2396       H  0.89611595  0.33324846  0.88145253     0.14400
C2397       C  0.87982944  0.37382157  0.71555921    -0.15200
C2398       C  0.86177775  0.36594247  0.69128082    -0.30300
H2399       H  0.88559813  0.39701024  0.72657525     0.13900
H2400       H  0.85458175  0.34229904  0.68045723     0.14400
C2401       C  0.69547904  0.40110519  0.85908292    -0.15200
C2402       C  0.70739488  0.40174014  0.88557759    -0.30300
H2403       H  0.70992919  0.40171300  0.84042606     0.13900
H2404       H  0.69366579  0.40271464  0.90418671     0.14400
C2405       C  0.71750198  0.30629502  0.95994022    -0.15200
C2406       C  0.68466582  0.28433751  0.95508202    -0.30300
H2407       H  0.72826167  0.30772007  0.98087408     0.13900
H2408       H  0.67357849  0.28386144  0.93450191     0.14400
C2409       C  0.78990196  0.28457193  0.84958433    -0.15200
C2410       C  0.78581560  0.28293255  0.82103995    -0.30300
H2411       H  0.80627639  0.27601545  0.85864971     0.13900
H2412       H  0.77066814  0.29269570  0.81155240     0.14400
C2413       C  0.87134550  0.37975249  0.95271232    -0.15200
C2414       C  0.85775239  0.35685288  0.97395501    -0.30300
H2415       H  0.89743374  0.38881662  0.94658050     0.13900
H2416       H  0.83080179  0.34503331  0.97810267     0.14400
C2417       C  0.85670625  0.49163475  0.88414672    -0.15200
C2418       C  0.88153079  0.01006624  0.86685553    -0.30300
H2419       H  0.84303344  0.50479913  0.88941673     0.13900
H2420       H  0.89349539  0.99574812  0.86000268     0.14400
C2421       C  0.80576200  0.41045626  0.77910753    -0.15200
C2422       C  0.78389442  0.38495141  0.79519662    -0.30300
H2423       H  0.82953096  0.42977970  0.78807559     0.13900
H2424       H  0.76040917  0.36553111  0.78588143     0.14400
C2425       C  0.80193661  0.08646761  0.60988405    -0.15200
C2426       C  0.79551846  0.09252181  0.63662774    -0.30300
H2427       H  0.78362493  0.08105712  0.59305347     0.13900
H2428       H  0.81375304  0.09747252  0.65343632     0.14400
C2429       C  0.90207241  0.18897317  0.53567290    -0.15200
C2430       C  0.90787449  0.22019134  0.54193644    -0.30300
H2431       H  0.89234706  0.17829503  0.51480519     0.13900
H2432       H  0.91604844  0.23022481  0.56324609     0.14400
C2433       C  0.50601439  0.12399377  0.54092551    -0.15200
C2434       C  0.98796511  0.12686202  0.53493618    -0.30300
H2435       H  0.50439188  0.10945084  0.55976664     0.13900
H2436       H  0.98796259  0.14107829  0.51641173     0.14400
C2437       C  0.49952522  0.19605328  0.67351527    -0.15200
C2438       C  0.00616998  0.19851100  0.65036130    -0.30300
H2439       H  0.47769716  0.19700654  0.68164564     0.13900
H2440       H  0.03096153  0.20436582  0.64252470     0.14400
C2441       C  0.84845649  0.47844289  0.61329755    -0.15200
C2442       C  0.88559540  0.00899070  0.61533086    -0.30300
H2443       H  0.83405887  0.47883781  0.59506584     0.13900
H2444       H  0.90075387  0.00695503  0.63223519     0.14400
C2445       C  0.91832850  0.11402479  0.71614892    -0.15200
C2446       C  0.89702947  0.11295461  0.69606938    -0.30300
H2447       H  0.94377837  0.11964297  0.71069416     0.13900
H2448       H  0.87166421  0.10748469  0.70172706     0.14400
O2449       O  0.94114352  0.58767708  0.07705777    -0.84100
O2450       O  0.96772999  0.64526336  0.11027168    -0.81100
C2451       C  0.96960899  0.66794889  0.12669586     0.99400
O2452       O  0.94383220  0.67075570  0.13153011    -0.81200
O2453       O  0.91526514  0.67669740  0.07973213    -0.83800
C2454       C  0.89963691  0.66747587  0.05626596     1.03900
O2455       O  0.88105724  0.63650678  0.05052953    -0.76600
O2456       O  0.92415092  0.61043478  0.04500962    -0.76800
C2457       C  0.94588009  0.60285197  0.05365409     1.03900
O2458       O  0.88940331  0.55380618  0.11851640    -0.84100
O2459       O  0.91960110  0.60885898  0.15370453    -0.81100
C2460       C  0.89552376  0.61175952  0.16390532     0.99400
O2461       O  0.87851261  0.62025508  0.14850992    -0.81200
O2462       O  0.85035131  0.63013463  0.10163695    -0.83800
C2463       C  0.82792834  0.59979262  0.09802445     1.03900
O2464       O  0.83493660  0.57961150  0.08509464    -0.76600
O2465       O  0.87233016  0.54811963  0.07421084    -0.76700
C2466       C  0.87221489  0.53519099  0.09815227     1.03800
Cr2467     Cr  0.92757658  0.59997743  0.11355153     1.93700
Cr2468     Cr  0.89761779  0.64715009  0.11382799     1.93200
Cr2469     Cr  0.87976777  0.59495246  0.06580584     1.39100
O2470       O  0.90163372  0.61407992  0.09770356    -1.21800
O2471       O  0.85720391  0.88582274  0.40955805    -0.84100
O2472       O  0.83000330  0.86119089  0.35658389    -0.81100
C2473       C  0.80598498  0.83121198  0.35901845     0.99400
O2474       O  0.78163674  0.82432101  0.37554937    -0.81200
O2475       O  0.73875933  0.83521196  0.41144039    -0.83800
C2476       C  0.74813182  0.83645013  0.43709115     1.03900
O2477       O  0.77594911  0.86045844  0.44537432    -0.76600
O2478       O  0.84199341  0.90960726  0.44301629    -0.76800
C2479       C  0.85798159  0.89473060  0.43507031     1.03900
O2480       O  0.86432812  0.94990416  0.39495223    -0.84100
O2481       O  0.83039202  0.92207617  0.34491445    -0.81100
C2482       C  0.80742448  0.90242820  0.32819450     0.99400
O2483       O  0.78439579  0.87380188  0.33663547    -0.81200
O2484       O  0.74817207  0.88847097  0.37244459    -0.83800
C2485       C  0.74119076  0.90128467  0.39308631     1.03900
O2486       O  0.75438181  0.90337653  0.41734424    -0.76600
O2487       O  0.82054261  0.95181079  0.41108633    -0.76700
C2488       C  0.84923331  0.96633201  0.39954518     1.03800
Cr2489     Cr  0.84260655  0.90357910  0.37795013     1.93700
Cr2490     Cr  0.76593305  0.85764621  0.37580453     1.93200
Cr2491     Cr  0.79871807  0.90528351  0.42685199     1.39100
O2492       O  0.80235362  0.88845865  0.39381309    -1.21800
O2493       O  0.91126217  0.86073402  0.24567517    -0.84100
O2494       O  0.85335082  0.82784822  0.27786990    -0.81100
C2495       C  0.83010968  0.80569641  0.29292388     0.99400
O2496       O  0.82782800  0.77725982  0.29642503    -0.81200
O2497       O  0.82517313  0.74825418  0.24327921    -0.83800
C2498       C  0.83488171  0.74223621  0.21991846     1.03900
O2499       O  0.86602757  0.75402720  0.21489456    -0.76600
O2500       O  0.88995161  0.82256424  0.21222445    -0.76800
C2501       C  0.89617161  0.85088105  0.22212436     1.03900
O2502       O  0.94512486  0.84135021  0.28634776    -0.84100
O2503       O  0.88923655  0.81371610  0.32068760    -0.81100
C2504       C  0.88605653  0.78614486  0.32964155     0.99400
O2505       O  0.87782810  0.76166416  0.31311842    -0.81200
O2506       O  0.87179296  0.72843401  0.26410145    -0.83800
C2507       C  0.90282640  0.73776200  0.26210072     1.03900
O2508       O  0.92292749  0.76550986  0.25026465    -0.76600
O2509       O  0.95232467  0.83396898  0.24131942    -0.76700
C2510       C  0.96447770  0.84487811  0.26583500     1.03800
Cr2511     Cr  0.89886468  0.83325907  0.28129568     1.93700
Cr2512     Cr  0.85286241  0.75670941  0.27784337     1.93200
Cr2513     Cr  0.90649459  0.79418709  0.23169174     1.39100
O2514       O  0.88610957  0.79470074  0.26371366    -1.21800
O2515       O  0.53303763  0.87682996  0.33753463    -0.84100
O2516       O  0.53689705  0.85832160  0.39194493    -0.81100
C2517       C  0.53363306  0.82903341  0.39200957     0.99400
O2518       O  0.55458787  0.82330909  0.37928573    -0.81200
O2519       O  0.60984378  0.83621991  0.34560438    -0.83800
C2520       C  0.60038840  0.83188939  0.31983885     1.03900
O2521       O  0.59323483  0.85233527  0.30778910    -0.76600
O2522       O  0.57053908  0.89840574  0.30309374    -0.76800
C2523       C  0.53981696  0.88306436  0.31146403     1.03900
O2524       O  0.58656140  0.94427726  0.34843832    -0.84100
O2525       O  0.59478572  0.92399274  0.40076111    -0.81100
C2526       C  0.59921822  0.90745528  0.41988819     0.99400
O2527       O  0.59587173  0.87882606  0.41467385    -0.81200
O2528       O  0.64893195  0.89569613  0.37989481    -0.83800
C2529       C  0.66780809  0.90379590  0.35852892     1.03900
O2530       O  0.65584011  0.90196075  0.33372719    -0.76600
O2531       O  0.63357784  0.94797985  0.33402753    -0.76700
C2532       C  0.61807484  0.96179348  0.34473437     1.03800
Cr2533     Cr  0.56467677  0.89980910  0.36857548     1.93700
Cr2534     Cr  0.60167131  0.86043626  0.37782113     1.93200
Cr2535     Cr  0.61176060  0.89954760  0.32188515     1.39100
O2536       O  0.59210861  0.88591481  0.35569534    -1.21800
O2537       O  0.64493958  0.61765366  0.16926405    -0.84100
O2538       O  0.66615839  0.64231630  0.11487486    -0.81100
C2539       C  0.69043527  0.67237419  0.11620494     0.99400
O2540       O  0.71661150  0.67936339  0.13019134    -0.81200
O2541       O  0.76279474  0.66955984  0.16112841    -0.83800
C2542       C  0.75524842  0.66976512  0.18711850     1.03900
O2543       O  0.72863287  0.64587485  0.19738375    -0.76600
O2544       O  0.66337557  0.59407962  0.19990321    -0.76800
C2545       C  0.64560323  0.60778631  0.19412832     1.03900
O2546       O  0.63843889  0.55372049  0.15259444    -0.84100
O2547       O  0.66528956  0.58152720  0.10102657    -0.81100
C2548       C  0.68655497  0.60078935  0.08309866     0.99400
O2549       O  0.71013764  0.62969113  0.09006694    -0.81200
O2550       O  0.75023376  0.61557153  0.12146627    -0.83800
C2551       C  0.76104487  0.60532374  0.14134731     1.03900
O2552       O  0.75087445  0.60476332  0.16673275    -0.76600
O2553       O  0.68513709  0.55461631  0.16429436    -0.76700
C2554       C  0.65560816  0.53892702  0.15462392     1.03800
Cr2555     Cr  0.65658922  0.60004460  0.13564835     1.93700
Cr2556     Cr  0.73256854  0.64642875  0.12755048     1.93200
Cr2557     Cr  0.70621320  0.60069880  0.17998396     1.39100
O2558       O  0.69845868  0.61607233  0.14793502    -1.21800
O2559       O  0.65201318  0.52706002  0.42434733    -0.84100
O2560       O  0.68267055  0.52984520  0.47571050    -0.81100
C2561       C  0.70512403  0.52292287  0.46895643     0.99400
O2562       O  0.72766831  0.54117985  0.45130484    -0.81200
O2563       O  0.76458592  0.59503888  0.41440319    -0.83800
C2564       C  0.75540925  0.59448792  0.38890103     1.03900
O2565       O  0.72861341  0.59503824  0.38318534    -0.76600
O2566       O  0.66018504  0.56700315  0.39329360    -0.76800
C2567       C  0.64696028  0.53591745  0.40025460     1.03900
O2568       O  0.63805880  0.57652392  0.44373753    -0.84100
O2569       O  0.68038163  0.58741240  0.49034000    -0.81100
C2570       C  0.70669124  0.59445212  0.00675396     0.99400
O2571       O  0.72960555  0.58894093  0.49298008    -0.81200
O2572       O  0.76292208  0.63929555  0.45691628    -0.83800
C2573       C  0.76331121  0.66087682  0.44020854     1.03900
O2574       O  0.74398244  0.65233582  0.41871756    -0.76600
O2575       O  0.67649390  0.62636012  0.43103861    -0.76700
C2576       C  0.64812781  0.60738208  0.44227537     1.03800
Cr2577     Cr  0.66642019  0.55754398  0.45690306     1.93700
Cr2578     Cr  0.74299251  0.59052624  0.45234616     1.93200
Cr2579     Cr  0.70221462  0.60831473  0.40888800     1.39100
O2580       O  0.70436587  0.58551844  0.43888321    -1.21800
O2581       O  0.54202913  0.64326247  0.25421723    -0.84100
O2582       O  0.52088918  0.67389519  0.21434338    -0.81100
C2583       C  0.52249139  0.69426609  0.19549212     0.99400
O2584       O  0.55032598  0.71949755  0.18888996    -0.81200
O2585       O  0.57722937  0.75864790  0.23734278    -0.83800
C2586       C  0.59055840  0.76716405  0.26167164     1.03900
O2587       O  0.60738137  0.75415522  0.27179912    -0.76600
O2588       O  0.56289505  0.68682784  0.28274791    -0.76800
C2589       C  0.54024296  0.65706890  0.27686239     1.03900
O2590       O  0.59345722  0.65109320  0.21574759    -0.84100
O2591       O  0.56932019  0.67454690  0.17503484    -0.81100
C2592       C  0.59510087  0.69823021  0.16339419     0.99400
O2593       O  0.61337576  0.72563608  0.17632021    -0.81200
O2594       O  0.64204926  0.77004182  0.22065323    -0.83800
C2595       C  0.66293029  0.76147855  0.22897560     1.03900
O2596       O  0.65336691  0.73554090  0.24419790    -0.76600
O2597       O  0.61290841  0.66922357  0.25873559    -0.76700
C2598       C  0.61144166  0.65251732  0.23652005     1.03800
Cr2599     Cr  0.55853214  0.66398058  0.21611999     1.93700
Cr2600     Cr  0.59503354  0.74065716  0.20770569     1.93200
Cr2601     Cr  0.60744766  0.71085234  0.26207147     1.39100
O2602       O  0.58705890  0.70516370  0.22871156    -1.21800
O2603       O  0.84812160  0.94926653  0.15865058    -0.84100
O2604       O  0.81426197  0.96916136  0.19441827    -0.81100
C2605       C  0.79360403  0.96925613  0.21204348     0.99400
O2606       O  0.76738698  0.94202337  0.21829970    -0.81200
O2607       O  0.73512532  0.91195823  0.16611579    -0.83800
C2608       C  0.72889938  0.89544825  0.14310554     1.03900
O2609       O  0.74029350  0.87555857  0.13884884    -0.76600
O2610       O  0.80601168  0.92087446  0.12934395    -0.76800
C2611       C  0.83333147  0.94727163  0.13526392     1.03900
O2612       O  0.84166725  0.90008320  0.20152380    -0.84100
O2613       O  0.81121259  0.92304418  0.23819433    -0.81100
C2614       C  0.78567202  0.89801915  0.24937530     0.99400
O2615       O  0.75949615  0.87967075  0.23509312    -0.81200
O2616       O  0.72072825  0.84796576  0.18886560    -0.83800
C2617       C  0.73056193  0.82673647  0.18562517     1.03900
O2618       O  0.75885456  0.83542823  0.17420232    -0.76600
O2619       O  0.82603529  0.87673884  0.15947072    -0.76700
C2620       C  0.84236726  0.88112683  0.18235860     1.03800
Cr2621     Cr  0.82593930  0.93307457  0.19707140     1.93700
Cr2622     Cr  0.74849563  0.89610815  0.20045816     1.93200
Cr2623     Cr  0.78334069  0.87891012  0.15271266     1.39100
O2624       O  0.78614284  0.90253088  0.18359621    -1.21800
O2625       O  0.60262136  0.65050326  0.49549050    -0.84100
O2626       O  0.65150406  0.68139975  0.03169795    -0.81100
C2627       C  0.67198697  0.70243479  0.04905852     0.99400
O2628       O  0.67233101  0.72982367  0.05323072    -0.81200
O2629       O  0.67513312  0.76014675  0.99989336    -0.83800
C2630       C  0.66903766  0.76929766  0.47724494     1.03900
O2631       O  0.63769653  0.75782495  0.47321883    -0.76600
O2632       O  0.61585739  0.69169177  0.46520648    -0.76800
C2633       C  0.61492678  0.66451070  0.47175351     1.03900
O2634       O  0.55582688  0.65726501  0.03789153    -0.84100
O2635       O  0.60935719  0.68828195  0.07428429    -0.81100
C2636       C  0.61191985  0.71528436  0.08450480     0.99400
O2637       O  0.61958035  0.74053261  0.06905903    -0.81200
O2638       O  0.62620142  0.77663961  0.02155314    -0.83800
C2639       C  0.59509917  0.76679937  0.01919252     1.03900
O2640       O  0.57955760  0.74128831  0.50924863    -0.76600
O2641       O  0.55254528  0.67383022  0.49618333    -0.76700
C2642       C  0.53647331  0.65624133  0.01834093     1.03800
Cr2643     Cr  0.60424296  0.67132429  0.03377069     1.93700
Cr2644     Cr  0.64616775  0.74885698  0.03428091     1.93200
Cr2645     Cr  0.59769095  0.71564044  0.48825159     1.39100
O2646       O  0.61443379  0.71072150  0.01863911    -1.21800
O2647       O  0.61750945  0.97114257  0.07821945    -0.84100
O2648       O  0.64443281  0.96967277  0.02565726    -0.81100
C2649       C  0.67385859  0.97376685  0.02905062     0.99400
O2650       O  0.67850400  0.95400659  0.04453577    -0.81200
O2651       O  0.66327373  0.89915003  0.07904835    -0.83800
C2652       C  0.66284177  0.90883177  0.10433426     1.03900
O2653       O  0.63965240  0.91419052  0.11243073    -0.76600
O2654       O  0.59045862  0.93119023  0.11000601    -0.76800
C2655       C  0.60691360  0.96226739  0.10326205     1.03900
O2656       O  0.55250112  0.91550162  0.06118868    -0.84100
O2657       O  0.58196118  0.91093861  0.01199231    -0.81100
C2658       C  0.60073277  0.90951913  0.49954168     0.99400
O2659       O  0.62940086  0.91101159  0.00391356    -0.81200
O2660       O  0.61008291  0.85848584  0.03869343    -0.83800
C2661       C  0.59851096  0.83878682  0.05940294     1.03900
O2662       O  0.59751435  0.85005120  0.08395865    -0.76600
O2663       O  0.54954401  0.86902998  0.07658467    -0.76700
C2664       C  0.53553584  0.88393451  0.06534392     1.03800
Cr2665     Cr  0.60011029  0.94017252  0.04559664     1.93700
Cr2666     Cr  0.64321610  0.90616724  0.04319213     1.93200
Cr2667     Cr  0.59531382  0.89257461  0.09352692     1.39100
O2668       O  0.61328287  0.91340710  0.06102011    -1.21800
O2669       O  0.87820273  0.53455248  0.32560273    -0.84100
O2670       O  0.85753977  0.53773072  0.27077320    -0.81100
C2671       C  0.82765907  0.53248155  0.27177677     0.99400
O2672       O  0.82011831  0.54952517  0.28821912    -0.81200
O2673       O  0.82926010  0.60257891  0.32367656    -0.83800
C2674       C  0.83108701  0.59618738  0.34970758     1.03900
O2675       O  0.85599653  0.59425770  0.35888404    -0.76600
O2676       O  0.90300729  0.57397384  0.35836104    -0.76800
C2677       C  0.88692268  0.54288224  0.35112094     1.03900
O2678       O  0.94434887  0.58936853  0.31227180    -0.84100
O2679       O  0.91917186  0.59655268  0.26074949    -0.81100
C2680       C  0.90024969  0.60027799  0.24332299     0.99400
O2681       O  0.87171932  0.59608869  0.25091040    -0.81200
O2682       O  0.88388343  0.64652943  0.28540031    -0.83800
C2683       C  0.89763346  0.66705782  0.30527911     1.03900
O2684       O  0.90045670  0.65698240  0.32981584    -0.76600
O2685       O  0.94764045  0.63654785  0.32514641    -0.76700
C2686       C  0.96175945  0.62088046  0.31560161     1.03800
Cr2687     Cr  0.89864036  0.56638152  0.29376924     1.93700
Cr2688     Cr  0.85345047  0.59823740  0.28900361     1.93200
Cr2689     Cr  0.90078427  0.61389987  0.34072456     1.39100
O2690       O  0.88383949  0.59265413  0.30809754    -1.21800
O2691       O  0.97144398  0.84896149  0.48933007    -0.84100
O2692       O  0.96754685  0.82234815  0.43570776    -0.81100
C2693       C  0.97358238  0.79827061  0.43823145     0.99400
O2694       O  0.95529053  0.77340409  0.45386899    -0.81200
O2695       O  0.90229574  0.73166174  0.49016176    -0.83800
C2696       C  0.90189975  0.74503863  0.02205383     1.03900
O2697       O  0.90408672  0.77199157  0.03123063    -0.76600
O2698       O  0.92112421  0.83835676  0.03011048    -0.76800
C2699       C  0.95263230  0.85219462  0.02500718     1.03900
O2700       O  0.91580440  0.85846484  0.47667790    -0.84100
O2701       O  0.90758403  0.82498091  0.42611959    -0.81100
C2702       C  0.90329622  0.80217313  0.40879768     0.99400
O2703       O  0.90832603  0.77831379  0.41617514    -0.81200
O2704       O  0.85783969  0.74216077  0.45262597    -0.83800
C2705       C  0.83891716  0.73466830  0.47395025     1.03900
O2706       O  0.84208930  0.75177664  0.00069049    -0.76600
O2707       O  0.86132249  0.81936823  0.99421707    -0.76700
C2708       C  0.88444081  0.84450995  0.48119010     1.03800
Cr2709     Cr  0.93882530  0.83572886  0.45824259     1.93700
Cr2710     Cr  0.90649694  0.75905441  0.45494693     1.93200
Cr2711     Cr  0.88365699  0.79588777  0.01182458     1.39100
O2712       O  0.91323243  0.79556023  0.47363029    -1.21800
C2713       C  0.97795149  0.87173071  0.04678802    -0.15200
C2714       C  0.50011014  0.86343198  0.05521417    -0.30300
H2715       H  0.98935692  0.89898371  0.04585518     0.13900
H2716       H  0.48886410  0.83615367  0.05627610     0.14400
C2717       C  0.58331195  0.79005987  0.02826114    -0.15200
C2718       C  0.59052053  0.80362743  0.05469011    -0.30300
H2719       H  0.57583825  0.80153022  0.01161524     0.13900
H2720       H  0.59701771  0.79150171  0.07147763     0.14400
C2721       C  0.70705504  0.89735058  0.12102406    -0.15200
C2722       C  0.68814986  0.91189202  0.12537057    -0.30300
H2723       H  0.70473212  0.88418106  0.10112146     0.13900
H2724       H  0.68920088  0.92377795  0.14569988     0.14400
C2725       C  0.80377699  0.00017939  0.22855917    -0.15200
C2726       C  0.80391826  0.50972279  0.25037681    -0.30300
H2727       H  0.82469683  0.02315439  0.21983367     0.13900
H2728       H  0.78061469  0.48816837  0.25772904     0.14400
C2729       C  0.70695087  0.79161956  0.19370408    -0.15200
C2730       C  0.69863318  0.78367138  0.22130619    -0.30300
H2731       H  0.68930429  0.77588178  0.17733420     0.13900
H2732       H  0.71546124  0.79981825  0.23791771     0.14400
C2733       C  0.60171277  0.69424100  0.13363885    -0.15200
C2734       C  0.60795671  0.71874030  0.11505152    -0.30300
H2735       H  0.59757553  0.66986088  0.12641796     0.13900
H2736       H  0.61012969  0.74229730  0.12253938     0.14400
C2737       C  0.99765131  0.64003278  0.30614238    -0.15200
C2738       C  0.51054708  0.63689829  0.29530888    -0.30300
H2739       H  0.01047663  0.66735544  0.30795411     0.13900
H2740       H  0.49754458  0.60983663  0.29161791     0.14400
C2741       C  0.78926223  0.69640237  0.44511578    -0.15200
C2742       C  0.80375487  0.70693043  0.47101812    -0.30300
H2743       H  0.80016291  0.71239998  0.42654250     0.13900
H2744       H  0.79181952  0.69166377  0.48977985     0.14400
C2745       C  0.80516523  0.59218962  0.37088040    -0.15200
C2746       C  0.77735571  0.59447011  0.36532354    -0.30300
H2747       H  0.81025647  0.58839787  0.39276468     0.13900
H2748       H  0.77155444  0.59789219  0.34357447     0.14400
C2749       C  0.63069419  0.65053551  0.45220303    -0.15200
C2750       C  0.62716106  0.61986454  0.45621223    -0.30300
H2751       H  0.64780294  0.66689922  0.43581655     0.13900
H2752       H  0.60895079  0.60324338  0.47189093     0.14400
C2753       C  0.70484292  0.49499637  0.48462959    -0.15200
C2754       C  0.70130932  0.99858798  0.01112015    -0.30300
H2755       H  0.68365237  0.96990096  0.48227189     0.13900
H2756       H  0.72152780  0.52750493  0.02942299     0.14400
C2757       C  0.64353456  0.50480586  0.14288438    -0.15200
C2758       C  0.61296615  0.98912228  0.12386607    -0.30300
H2759       H  0.66234532  0.49692698  0.14037097     0.13900
H2760       H  0.59995932  0.00321177  0.11990183     0.16800
C2761       C  0.70943928  0.60574250  0.03587408    -0.15200
C2762       C  0.68319380  0.59031564  0.05353168    -0.30300
H2763       H  0.73405890  0.62494762  0.04352992     0.13900
H2764       H  0.65946880  0.56912754  0.04634153     0.14400
C2765       C  0.68978847  0.69158650  0.06852306    -0.15200
C2766       C  0.69002797  0.69722948  0.09676703    -0.30300
H2767       H  0.69442036  0.67168181  0.06105223     0.13900
H2768       H  0.68317603  0.71523365  0.10511304     0.14400
C2769       C  0.62228036  0.60988256  0.21487322    -0.15200
C2770       C  0.63235758  0.63596989  0.23317796    -0.30300
H2771       H  0.59610134  0.59735833  0.20790886     0.13900
H2772       H  0.65844947  0.64968137  0.24023484     0.14400
C2773       C  0.59979560  0.80328905  0.30414665    -0.15200
C2774       C  0.58796953  0.79412229  0.27746394    -0.30300
H2775       H  0.61015775  0.78949665  0.31507636     0.13900
H2776       H  0.57690047  0.80729068  0.26658366     0.14400
C2777       C  0.99983485  0.79864715  0.41983132    -0.15200
C2778       C  0.50734227  0.80344665  0.41042981    -0.30300
H2779       H  0.02288580  0.80205484  0.42962020     0.13900
H2780       H  0.51523580  0.79468915  0.42877435     0.14400
C2781       C  0.63743187  0.99721181  0.35560493    -0.15200
C2782       C  0.62242877  0.50870273  0.38204938    -0.30300
H2783       H  0.66396282  0.01214243  0.34991574     0.13900
H2784       H  0.59789180  0.49278813  0.39181562     0.14400
C2785       C  0.60633430  0.92021363  0.44890937    -0.15200
C2786       C  0.59085708  0.89893940  0.47041027    -0.30300
H2787       H  0.62397567  0.94675729  0.45276330     0.13900
H2788       H  0.57144780  0.87296736  0.46650968     0.14400
C2789       C  0.91402632  0.71449061  0.27240459    -0.15200
C2790       C  0.90691366  0.70239675  0.29937655    -0.30300
H2791       H  0.92070972  0.70163358  0.25635649     0.13900
H2792       H  0.90121259  0.71579746  0.31563213     0.14400
C2793       C  0.81019598  0.71927831  0.19891553    -0.15200
C2794       C  0.77833846  0.69695204  0.20636312    -0.30300
H2795       H  0.81935800  0.71827318  0.17775513     0.13900
H2796       H  0.76977413  0.69684294  0.22800475     0.14400
C2797       C  0.51062399  0.87173014  0.29135858    -0.15200
C2798       C  0.00143937  0.86167390  0.27104205    -0.30300
H2799       H  0.51346893  0.86790745  0.26893165     0.13900
H2800       H  0.01669696  0.85349753  0.25937069     0.14400
C2801       C  0.89121538  0.78196974  0.35973290    -0.15200
C2802       C  0.89494279  0.80497311  0.37923895    -0.30300
H2803       H  0.89219176  0.75953955  0.36590549     0.13900
H2804       H  0.89324690  0.82704853  0.37317452     0.14400
C2805       C  0.88448155  0.87259301  0.20845794    -0.15200
C2806       C  0.86132888  0.86277237  0.18748183    -0.30300
H2807       H  0.89172656  0.89629368  0.21926387     0.13900
H2808       H  0.85381388  0.83941816  0.17604824     0.14400
C2809       C  0.70272942  0.91073463  0.36263233    -0.15200
C2810       C  0.71474621  0.91051076  0.38896436    -0.30300
H2811       H  0.71634939  0.91011883  0.34382235     0.13900
H2812       H  0.70175066  0.91210139  0.40782032     0.14400
C2813       C  0.72607214  0.81086227  0.45844246    -0.15200
C2814       C  0.69265025  0.79093527  0.45456298    -0.30300
H2815       H  0.73705526  0.81067071  0.47889864     0.13900
H2816       H  0.68153733  0.79244972  0.43455438     0.14400
C2817       C  0.80480472  0.80646623  0.33849608    -0.15200
C2818       C  0.81050355  0.81586522  0.31088168    -0.30300
H2819       H  0.80639837  0.78491535  0.34628070     0.13900
H2820       H  0.80982093  0.83833604  0.30422589     0.14400
C2821       C  0.87904603  0.88828108  0.45494814    -0.15200
C2822       C  0.86515319  0.86118860  0.47220683    -0.30300
H2823       H  0.90577173  0.90011121  0.44982566     0.13900
H2824       H  0.83795560  0.84768769  0.47545461     0.14400
C2825       C  0.86357504  0.00161704  0.38936420    -0.15200
C2826       C  0.87984352  0.51532873  0.37154162    -0.30300
H2827       H  0.85095345  0.01552031  0.39559482     0.13900
H2828       H  0.89621278  0.50438179  0.37046743     0.14400
C2829       C  0.78541711  0.89030952  0.27965798    -0.15200
C2830       C  0.80846703  0.91183847  0.29814409    -0.30300
H2831       H  0.76496929  0.86621966  0.28703266     0.13900
H2832       H  0.82860069  0.93623190  0.29103121     0.14400
C2833       C  0.79346817  0.58972999  0.10811172    -0.15200
C2834       C  0.78872609  0.59826105  0.13472325    -0.30300
H2835       H  0.77341790  0.58104040  0.09239303     0.13900
H2836       H  0.80845320  0.60548502  0.15059110     0.14400
C2837       C  0.90077574  0.69208836  0.03524428    -0.15200
C2838       C  0.90675972  0.72304249  0.04243584    -0.30300
H2839       H  0.89264816  0.68298059  0.01370316     0.13900
H2840       H  0.91327328  0.73164271  0.06430357     0.14400
C2841       C  0.49923569  0.63872386  0.02353962    -0.15200
C2842       C  0.97831708  0.61239224  0.03871069    -0.30300
H2843       H  0.48397656  0.64668017  0.01167428     0.13900
H2844       H  0.99368224  0.60311372  0.04860282     0.14400
C2845       C  0.49333817  0.68574551  0.17743373    -0.15200
C2846       C  0.00008421  0.68628239  0.14418516    -0.30300
H2847       H  0.46819098  0.67085792  0.18642252     0.13900
H2848       H  0.02274313  0.68661971  0.13638780     0.14400
C2849       C  0.84646138  0.97676948  0.11542420    -0.15200
C2850       C  0.85186984  0.49807752  0.10293275    -0.30300
H2851       H  0.82893645  0.97754993  0.10022348     0.13900
H2852       H  0.82642367  0.48406038  0.09442970     0.14400
C2853       C  0.90982192  0.60684605  0.21327825    -0.15200
C2854       C  0.88779580  0.60650671  0.19417436    -0.30300
H2855       H  0.93441048  0.61086570  0.20664998     0.13900
H2856       H  0.86346077  0.60306175  0.20093162     0.14400
O2857       O  0.95327467  0.59584461  0.58795153    -0.84100
O2858       O  0.97419074  0.65690529  0.61408991    -0.81100
C2859       C  0.97405950  0.67966171  0.62898333     0.99400
O2860       O  0.94677521  0.68004202  0.63268981    -0.81200
O2861       O  0.91872755  0.67590974  0.57812532    -0.83800
C2862       C  0.90312113  0.66338265  0.55510733     1.03900
O2863       O  0.88533344  0.63157401  0.55212255    -0.76600
O2864       O  0.93179418  0.60932859  0.55219392    -0.76800
C2865       C  0.95565701  0.60621009  0.56274065     1.03900
O2866       O  0.90304453  0.56460045  0.63073727    -0.84100
O2867       O  0.92680152  0.62317019  0.65950879    -0.81100
C2868       C  0.90016988  0.62282470  0.66771180     0.99400
O2869       O  0.88235143  0.62835172  0.65061091    -0.81200
O2870       O  0.85370209  0.62930789  0.60062711    -0.83800
C2871       C  0.83304291  0.59802191  0.60052435     1.03900
O2872       O  0.84225924  0.57762623  0.59157828    -0.76600
O2873       O  0.88442289  0.54984754  0.58707998    -0.76700
C2874       C  0.88757648  0.54201610  0.61246185     1.03800
Cr2875     Cr  0.93737794  0.61077945  0.62159036     1.93700
Cr2876     Cr  0.90118656  0.65126048  0.61430904     1.93200
Cr2877     Cr  0.88735166  0.59361655  0.57265915     1.39100
O2878       O  0.90845193  0.61833745  0.60285490    -1.21800
O2879       O  0.84968588  0.88172967  0.90421047    -0.84100
O2880       O  0.81680700  0.84967992  0.85505342    -0.81100
C2881       C  0.79348114  0.82016540  0.86109848     0.99400
O2882       O  0.76944519  0.81544405  0.87730990    -0.81200
O2883       O  0.73000961  0.83168138  0.91211461    -0.83800
C2884       C  0.74170958  0.83323889  0.93681138     1.03900
O2885       O  0.77026308  0.85709758  0.94338484    -0.76600
O2886       O  0.83519120  0.90613400  0.93766147    -0.76800
C2887       C  0.85145496  0.89166775  0.92952784     1.03900
O2888       O  0.85344750  0.94291628  0.88538681    -0.84100
O2889       O  0.81483240  0.90875178  0.83819852    -0.81100
C2890       C  0.79023876  0.88688700  0.82385741     0.99400
O2891       O  0.76924093  0.85921161  0.83485926    -0.81200
O2892       O  0.73821148  0.88114949  0.86995935    -0.83800
C2893       C  0.73263512  0.89579538  0.89005880     1.03900
O2894       O  0.74601895  0.89819843  0.91435304    -0.76600
O2895       O  0.81184828  0.94600076  0.90565092    -0.76700
C2896       C  0.83968450  0.95992098  0.89275969     1.03800
Cr2897     Cr  0.83097365  0.89488802  0.87218117     1.93700
Cr2898     Cr  0.75455039  0.84928128  0.87514985     1.93200
Cr2899     Cr  0.79103595  0.90054582  0.92288488     1.39100
O2900       O  0.79240332  0.88140461  0.89035515    -1.21800
O2901       O  0.87793808  0.84838378  0.75484731    -0.84100
O2902       O  0.84803154  0.81743467  0.80539033    -0.81100
C2903       C  0.81860756  0.79322367  0.80059706     0.99400
O2904       O  0.81405156  0.76917235  0.78460231    -0.81200
O2905       O  0.83033200  0.72948763  0.75013496    -0.83800
C2906       C  0.83295315  0.73927468  0.72455875     1.03900
O2907       O  0.85681387  0.76758640  0.71715456    -0.76600
O2908       O  0.90347381  0.83469257  0.72179431    -0.76800
C2909       C  0.88870151  0.85088336  0.72974859     1.03900
O2910       O  0.94121634  0.85595547  0.77377357    -0.84100
O2911       O  0.90856689  0.81871262  0.82127979    -0.81100
C2912       C  0.88810698  0.79416872  0.83629220     0.99400
O2913       O  0.86031570  0.77164898  0.82644336    -0.81200
O2914       O  0.88082312  0.73950973  0.79204033    -0.83800
C2915       C  0.89574683  0.73376093  0.77234055     1.03900
O2916       O  0.89950248  0.74768882  0.74809746    -0.76600
O2917       O  0.94557216  0.81432268  0.75559006    -0.76700
C2918       C  0.95895370  0.84254506  0.76773956     1.03800
Cr2919     Cr  0.89295011  0.83219051  0.78727258     1.93700
Cr2920     Cr  0.84877209  0.75540017  0.78655151     1.93200
Cr2921     Cr  0.89999885  0.79144263  0.73806962     1.39100
O2922       O  0.88024247  0.79304817  0.77026874    -1.21800
O2923       O  0.55092686  0.91123923  0.83486215    -0.84100
O2924       O  0.52678843  0.85165278  0.86471659    -0.81100
C2925       C  0.52604098  0.82864621  0.87991775     0.99400
O2926       O  0.55263638  0.82711945  0.88390745    -0.81200
O2927       O  0.57981539  0.82609942  0.83005853    -0.83800
C2928       C  0.59508728  0.83687051  0.80656761     1.03900
O2929       O  0.61376960  0.86816360  0.80222417    -0.76600
O2930       O  0.56909946  0.89204851  0.80056137    -0.76800
C2931       C  0.54668678  0.89775292  0.81071923     1.03900
O2932       O  0.60231707  0.94349083  0.87618857    -0.84100
O2933       O  0.57535015  0.88678009  0.90847889    -0.81100
C2934       C  0.60090216  0.88559237  0.91733562     0.99400
O2935       O  0.61782766  0.87794437  0.90085593    -0.81200
O2936       O  0.64528503  0.87233698  0.85134423    -0.83800
C2937       C  0.66683970  0.90324617  0.84936245     1.03900
O2938       O  0.65877085  0.92371316  0.83867583    -0.76600
O2939       O  0.61873834  0.95303361  0.83159487    -0.76700
C2940       C  0.61812968  0.96383004  0.85636605     1.03800
Cr2941     Cr  0.56565661  0.89740045  0.86965339     1.93700
Cr2942     Cr  0.59823414  0.85306994  0.86525222     1.93200
Cr2943     Cr  0.61364254  0.90787376  0.82029781     1.39100
O2944       O  0.59265377  0.88621237  0.85177073    -1.21800
O2945       O  0.64886633  0.61761427  0.66689201    -0.84100
O2946       O  0.67185374  0.64173840  0.61249827    -0.81100
C2947       C  0.69641842  0.67148390  0.61451434     0.99400
O2948       O  0.72183806  0.67741374  0.62922360    -0.81200
O2949       O  0.76547894  0.66542046  0.66236510    -0.83800
C2950       C  0.75775762  0.66322579  0.68861141     1.03900
O2951       O  0.73073980  0.63883980  0.69782273    -0.76600
O2952       O  0.66385611  0.59090821  0.69753024    -0.76800
C2953       C  0.64835250  0.60701445  0.69171762     1.03900
O2954       O  0.63843435  0.55244928  0.65026673    -0.84100
O2955       O  0.66855820  0.57983776  0.59945744    -0.81100
C2956       C  0.69061160  0.59866130  0.58182798     0.99400
O2957       O  0.71530306  0.62686261  0.58927138    -0.81200
O2958       O  0.75419525  0.61215526  0.62210183    -0.83800
C2959       C  0.76298068  0.59989104  0.64194306     1.03900
O2960       O  0.75026845  0.59670199  0.66666913    -0.76600
O2961       O  0.68271856  0.54883310  0.66179775    -0.76700
C2962       C  0.65308424  0.53519101  0.65220822     1.03800
Cr2963     Cr  0.65995984  0.59905773  0.63358562     1.93700
Cr2964     Cr  0.73661312  0.64324919  0.62756943     1.93200
Cr2965     Cr  0.70623208  0.59483664  0.67865611     1.39100
O2966       O  0.70114741  0.61283046  0.64686221    -1.21800
O2967       O  0.65369078  0.52364314  0.92836774    -0.84100
O2968       O  0.68629172  0.52999927  0.98012457    -0.81100
C2969       C  0.71093752  0.52576847  0.97469378     0.99400
O2970       O  0.73284147  0.54446730  0.95683661    -0.81200
O2971       O  0.76677538  0.59652765  0.91829136    -0.83800
C2972       C  0.75658789  0.59293154  0.89279232     1.03900
O2973       O  0.72906513  0.59197603  0.88670892    -0.76600
O2974       O  0.66028732  0.56217557  0.89648256    -0.76800
C2975       C  0.64830724  0.53135034  0.90386761     1.03900
O2976       O  0.63737594  0.57272344  0.94693154    -0.84100
O2977       O  0.67994935  0.58607653  0.99293464    -0.81100
C2978       C  0.70684121  0.59361617  0.50387319     0.99400
O2979       O  0.73092611  0.59183910  0.99642719    -0.81200
O2980       O  0.76168488  0.64122720  0.95912294    -0.83800
C2981       C  0.76101101  0.66136486  0.94141207     1.03900
O2982       O  0.74202494  0.65079798  0.91970311    -0.76600
O2983       O  0.67420267  0.62249822  0.93244999    -0.76700
C2984       C  0.64638344  0.60342106  0.94458473     1.03800
Cr2985     Cr  0.66745409  0.55541516  0.96035965     1.93700
Cr2986     Cr  0.74469462  0.59272370  0.95604715     1.93200
Cr2987     Cr  0.70139798  0.60513274  0.91122826     1.39100
O2988       O  0.70495150  0.58436010  0.94206974    -1.21800
O2989       O  0.53411715  0.65371759  0.74924509    -0.84100
O2990       O  0.53423955  0.67631321  0.69457901    -0.81100
C2991       C  0.52850846  0.70060470  0.69705187     0.99400
O2992       O  0.54747042  0.72578933  0.71198794    -0.81200
O2993       O  0.60147039  0.76950897  0.74506274    -0.83800
C2994       C  0.59355713  0.76090593  0.77085340     1.03900
O2995       O  0.59184791  0.73443943  0.78037405    -0.76600
O2996       O  0.57475486  0.66915898  0.78074722    -0.76800
C2997       C  0.54347961  0.65574127  0.77482656     1.03900
O2998       O  0.58957000  0.64285746  0.73400698    -0.84100
O2999       O  0.59349221  0.67336406  0.68208833    -0.81100
C3000       C  0.59709194  0.69586647  0.66455763     0.99400
O3001       O  0.59245655  0.71993623  0.67220282    -0.81200
O3002       O  0.64504988  0.75884699  0.70611633    -0.83800
C3003       C  0.66523805  0.76724773  0.72660306     1.03900
O3004       O  0.65493530  0.75447198  0.75110308    -0.76600
O3005       O  0.63650214  0.68724168  0.74677394    -0.76700
C3006       C  0.62124203  0.65748856  0.73739211     1.03800
Cr3007     Cr  0.56468351  0.66436921  0.71627166     1.93700
Cr3008     Cr  0.59626029  0.74089686  0.71056272     1.93200
Cr3009     Cr  0.61308808  0.71071472  0.76235432     1.39100
O3010       O  0.59134765  0.70548962  0.72982521    -1.21800
O3011       O  0.85682432  0.95382477  0.65224788    -0.84100
O3012       O  0.82659152  0.98097093  0.68663737    -0.81100
C3013       C  0.80693881  0.98264974  0.70466856     0.99400
O3014       O  0.78079423  0.95627961  0.71262296    -0.81200
O3015       O  0.74104647  0.91905727  0.66624400    -0.83800
C3016       C  0.73358485  0.90155231  0.64373052     1.03900
O3017       O  0.74676977  0.88341726  0.63836606    -0.76600
O3018       O  0.81251698  0.92690558  0.62533519    -0.76800
C3019       C  0.84120646  0.95224570  0.62960546     1.03900
O3020       O  0.85084840  0.91009536  0.69858788    -0.84100
O3021       O  0.82732090  0.94150623  0.73317061    -0.81100
C3022       C  0.80376967  0.91827349  0.74731180     0.99400
O3023       O  0.77624331  0.89752220  0.73553723    -0.81200
O3024       O  0.73142279  0.85928503  0.69388334    -0.83800
C3025       C  0.73920926  0.83702112  0.68812638     1.03900
O3026       O  0.76567258  0.84431346  0.67409213    -0.76600
O3027       O  0.83244977  0.88318138  0.65811159    -0.76700
C3028       C  0.84894396  0.88826135  0.68113133     1.03800
Cr3029     Cr  0.83719881  0.94415805  0.69151072     1.93700
Cr3030     Cr  0.76016656  0.90847312  0.70021842     1.93200
Cr3031     Cr  0.79020885  0.88663910  0.65115916     1.39100
O3032       O  0.79579927  0.91290920  0.68104508    -1.21800
O3033       O  0.59808448  0.64723151  0.99619740    -0.84100
O3034       O  0.65650529  0.68409077  0.53069837    -0.81100
C3035       C  0.67661301  0.70414251  0.54879139     0.99400
O3036       O  0.67672269  0.73131214  0.55387558    -0.81200
O3037       O  0.67940789  0.76336034  0.50042959    -0.83800
C3038       C  0.66480323  0.76577389  0.97667813     1.03900
O3039       O  0.63361919  0.75447537  0.97244141    -0.76600
O3040       O  0.61238407  0.68798907  0.96523486    -0.76800
C3041       C  0.61107400  0.66070026  0.97241204     1.03900
O3042       O  0.56081894  0.65866782  0.53824704    -0.84100
O3043       O  0.61402531  0.68899554  0.57441515    -0.81100
C3044       C  0.61491930  0.71505376  0.58503729     0.99400
O3045       O  0.62315528  0.74098513  0.57019005    -0.81200
O3046       O  0.63025629  0.77895557  0.52334457    -0.83800
C3047       C  0.59926795  0.76948987  0.52044181     1.03900
O3048       O  0.57549745  0.73864827  0.00776486    -0.76600
O3049       O  0.54870430  0.67102550  0.99491697    -0.76700
C3050       C  0.54096703  0.65817083  0.51944476     1.03800
Cr3051     Cr  0.60912114  0.67343639  0.53346542     1.93700
Cr3052     Cr  0.65032473  0.75081138  0.53529037     1.93200
Cr3053     Cr  0.59380346  0.71261548  0.98732840     1.39100
O3054       O  0.61871225  0.71309069  0.51914155    -1.21800
O3055       O  0.61501729  0.97108225  0.58354324    -0.84100
O3056       O  0.64269677  0.97214569  0.53110478    -0.81100
C3057       C  0.67224294  0.97697438  0.53526015     0.99400
O3058       O  0.67685807  0.95698575  0.55042505    -0.81200
O3059       O  0.66238020  0.90050674  0.58238080    -0.83800
C3060       C  0.66081171  0.90807498  0.60813551     1.03900
O3061       O  0.63662515  0.91179629  0.61655161    -0.76600
O3062       O  0.58788214  0.92982629  0.61430772    -0.76800
C3063       C  0.60476997  0.96119429  0.60849959     1.03900
O3064       O  0.55036508  0.91621665  0.56481993    -0.84100
O3065       O  0.58087860  0.91298249  0.51596062    -0.81100
C3066       C  0.60110601  0.90644013  0.99549054     0.99400
O3067       O  0.62952071  0.91546950  0.50782700    -0.81200
O3068       O  0.61106533  0.86107550  0.54057721    -0.83800
C3069       C  0.59866066  0.84026134  0.56052283     1.03900
O3070       O  0.59524364  0.84983906  0.58515898    -0.76600
O3071       O  0.54689103  0.86910785  0.57890754    -0.76700
C3072       C  0.53312187  0.88456034  0.56816113     1.03800
Cr3073     Cr  0.59822970  0.94138325  0.55013591     1.93700
Cr3074     Cr  0.64270041  0.90891834  0.54694120     1.93200
Cr3075     Cr  0.59269084  0.89169543  0.59650528     1.39100
O3076       O  0.61150330  0.91424935  0.56482048    -1.21800
O3077       O  0.88068691  0.52853319  0.82201011    -0.84100
O3078       O  0.85723922  0.53431838  0.76913981    -0.81100
C3079       C  0.82674524  0.52676792  0.77230439     0.99400
O3080       O  0.81893687  0.54233222  0.79017564    -0.81200
O3081       O  0.82677102  0.59425681  0.82708345    -0.83800
C3082       C  0.82974405  0.58889651  0.85311621     1.03900
O3083       O  0.85467412  0.58634231  0.86144709    -0.76600
O3084       O  0.90161610  0.56524272  0.85750458    -0.76800
C3085       C  0.88847464  0.53505464  0.84790372     1.03900
O3086       O  0.94471338  0.58542791  0.80993811    -0.84100
O3087       O  0.91774173  0.59635648  0.76158657    -0.81100
C3088       C  0.89839548  0.60051603  0.74513797     0.99400
O3089       O  0.86845621  0.59203017  0.75249301    -0.81200
O3090       O  0.87941431  0.64002172  0.78915894    -0.83800
C3091       C  0.89474775  0.66012183  0.80899019     1.03900
O3092       O  0.89914558  0.64963934  0.83283286    -0.76600
O3093       O  0.94634941  0.63032794  0.82682468    -0.76700
C3094       C  0.96130533  0.61647598  0.81541605     1.03800
Cr3095     Cr  0.89868687  0.56284728  0.79216586     1.93700
Cr3096     Cr  0.85062306  0.59147919  0.79160239     1.93200
Cr3097     Cr  0.89935644  0.60624354  0.84231543     1.39100
O3098       O  0.88229700  0.58645409  0.80923971    -1.21800
O3099       O  0.96324017  0.85078616  0.00055137    -0.84100
O3100       O  0.96485178  0.82823247  0.94603623    -0.81100
C3101       C  0.96908637  0.80298615  0.94789776     0.99400
O3102       O  0.94933800  0.77790984  0.96264413    -0.81200
O3103       O  0.89440530  0.73630146  0.99617448    -0.83800
C3104       C  0.91103620  0.74093542  0.51573092     1.03900
O3105       O  0.91518311  0.76881171  0.52450957    -0.76600
O3106       O  0.93274344  0.83535546  0.52276102    -0.76800
C3107       C  0.96344717  0.85114413  0.51460086     1.03900
O3108       O  0.90980472  0.86303997  0.98338146    -0.84100
O3109       O  0.90765901  0.83352216  0.93219501    -0.81100
C3110       C  0.90380447  0.81087546  0.91485498     0.99400
O3111       O  0.90619361  0.78558951  0.92275450    -0.81200
O3112       O  0.85248248  0.74787090  0.95583631    -0.83800
C3113       C  0.83209629  0.73880239  0.97620934     1.03900
O3114       O  0.85076779  0.74821045  0.49794362    -0.76600
O3115       O  0.86924663  0.81522163  0.49152029    -0.76700
C3116       C  0.87796550  0.84887622  0.98443070     1.03800
Cr3117     Cr  0.93459065  0.84108471  0.96682141     1.93700
Cr3118     Cr  0.90092415  0.76445831  0.96105902     1.93200
Cr3119     Cr  0.89338919  0.79234037  0.50685134     1.39100
O3120       O  0.90653603  0.80028067  0.98000958    -1.21800
C3121       C  0.99070698  0.87425073  0.53361546    -0.15200
C3122       C  0.49736900  0.86494697  0.55814283    -0.30300
H3123       H  0.00678799  0.89969152  0.52568088     0.13900
H3124       H  0.48218861  0.83901240  0.56526689     0.14400
C3125       C  0.58765713  0.79322087  0.52845438    -0.15200
C3126       C  0.59239343  0.80573012  0.55518237    -0.30300
H3127       H  0.58165572  0.80528476  0.51127519     0.13900
H3128       H  0.59746088  0.79298499  0.57239459     0.14400
C3129       C  0.70884255  0.90093870  0.62302419    -0.15200
C3130       C  0.68674598  0.91151274  0.62898565    -0.30300
H3131       H  0.70763693  0.88952271  0.60241322     0.13900
H3132       H  0.68664750  0.92145479  0.65000739     0.14400
C3133       C  0.81857283  0.01357999  0.72147525    -0.15200
C3134       C  0.80192578  0.50282245  0.75210205    -0.30300
H3135       H  0.84221229  0.03537794  0.71484482     0.13900
H3136       H  0.78022422  0.48035211  0.76051357     0.14400
C3137       C  0.71489529  0.80199014  0.69624601    -0.15200
C3138       C  0.70006858  0.79519870  0.72217129    -0.30300
H3139       H  0.70474192  0.78319100  0.67942062     0.13900
H3140       H  0.71135036  0.81359648  0.73921204     0.14400
C3141       C  0.60499250  0.69333665  0.63449115    -0.15200
C3142       C  0.60738029  0.71624473  0.61530345    -0.30300
H3143       H  0.60850489  0.67242299  0.62800410     0.13900
H3144       H  0.60448425  0.73744679  0.62209522     0.14400
C3145       C  0.99724426  0.63746751  0.80635376    -0.15200
C3146       C  0.51753098  0.64330309  0.79784629    -0.30300
H3147       H  0.00937346  0.66446679  0.81017465     0.13900
H3148       H  0.52432452  0.65480277  0.81885667     0.14400
C3149       C  0.78535301  0.69764623  0.94566515    -0.15200
C3150       C  0.79774325  0.70979357  0.97193430    -0.30300
H3151       H  0.79699678  0.71295031  0.92688189     0.13900
H3152       H  0.78486965  0.69492892  0.99063832     0.14400
C3153       C  0.80511966  0.58721444  0.87497806    -0.15200
C3154       C  0.77787677  0.59072436  0.86949845    -0.30300
H3155       H  0.81078603  0.58452484  0.89696878     0.13900
H3156       H  0.77154622  0.59286736  0.84759956     0.14400
C3157       C  0.62717245  0.64605948  0.95349503    -0.15200
C3158       C  0.62497727  0.61591742  0.95845695    -0.30300
H3159       H  0.64353161  0.66180116  0.93646943     0.13900
H3160       H  0.60762408  0.59984293  0.97485908     0.14400
C3161       C  0.71405028  0.50039443  0.99172794    -0.15200
C3162       C  0.69976591  0.00224699  0.51778819    -0.30300
H3163       H  0.68087807  0.96869264  0.97457059     0.13900
H3164       H  0.71228820  0.52024704  0.52358452     0.14400
C3165       C  0.63697149  0.49999557  0.64134493    -0.15200
C3166       C  0.61262150  0.98731677  0.63040293    -0.30300
H3167       H  0.64915465  0.48525745  0.64603105     0.13900
H3168       H  0.59732322  0.99947732  0.63078248     0.16800
C3169       C  0.71108458  0.60478445  0.53324211    -0.15200
C3170       C  0.68622648  0.58853358  0.55200036    -0.30300
H3171       H  0.73588528  0.62449281  0.54005695     0.13900
H3172       H  0.66239566  0.56705144  0.54534191     0.14400
C3173       C  0.69433356  0.69209455  0.56746358    -0.15200
C3174       C  0.69652353  0.69748664  0.59588066    -0.30300
H3175       H  0.69747938  0.67152860  0.55922559     0.13900
H3176       H  0.69173614  0.71650148  0.60521257     0.14400
C3177       C  0.62765709  0.61258001  0.71301877    -0.15200
C3178       C  0.64120167  0.64137656  0.72823510    -0.30300
H3179       H  0.60048236  0.59841106  0.71005838     0.13900
H3180       H  0.66853222  0.65658559  0.72950280     0.14400
C3181       C  0.59389188  0.81338433  0.78443295    -0.15200
C3182       C  0.58769436  0.78229390  0.79100454    -0.30300
H3183       H  0.60248168  0.82327577  0.76312848     0.13900
H3184       H  0.58074040  0.77316229  0.81272779     0.14400
C3185       C  0.99379464  0.80160367  0.92871984    -0.15200
C3186       C  0.49583245  0.80841589  0.89723070    -0.30300
H3187       H  0.01800662  0.80690753  0.93742227     0.13900
H3188       H  0.47236871  0.80606849  0.88923561     0.14400
C3189       C  0.63633846  0.00036358  0.86285255    -0.15200
C3190       C  0.62524920  0.50329100  0.88512659    -0.30300
H3191       H  0.65998004  0.01670964  0.85199171     0.13900
H3192       H  0.59961323  0.48767522  0.89291982     0.14400
C3193       C  0.61040931  0.89241191  0.94730016    -0.15200
C3194       C  0.59103279  0.89753124  0.96587472    -0.30300
H3195       H  0.63376678  0.89363141  0.95409577     0.13900
H3196       H  0.56743355  0.89580113  0.95910434     0.14400
C3197       C  0.90487238  0.70738401  0.77748438    -0.15200
C3198       C  0.90430582  0.69571895  0.80422444    -0.30300
H3199       H  0.90589601  0.69346047  0.75907813     0.13900
H3200       H  0.90494017  0.71039595  0.82268266     0.14400
C3201       C  0.80892735  0.71681961  0.70265927    -0.15200
C3202       C  0.78091498  0.68798684  0.70967478    -0.30300
H3203       H  0.81472485  0.72380004  0.68039472     0.13900
H3204       H  0.77483598  0.68173341  0.73203561     0.14400
C3205       C  0.51395924  0.88730339  0.79669964    -0.15200
C3206       C  0.99514417  0.85873866  0.77607507    -0.30300
H3207       H  0.49745454  0.89451248  0.80768315     0.13900
H3208       H  0.00921953  0.84624587  0.76997383     0.14400
C3209       C  0.89549375  0.79164565  0.86583945    -0.15200
C3210       C  0.89844539  0.81480089  0.88476546    -0.30300
H3211       H  0.89516048  0.76871542  0.87252813     0.13900
H3212       H  0.89684501  0.83673175  0.87798979     0.14400
C3213       C  0.88570256  0.87565661  0.71134671    -0.15200
C3214       C  0.86442348  0.86711569  0.68893619    -0.30300
H3215       H  0.89434433  0.90014807  0.72116055     0.13900
H3216       H  0.85436231  0.84233959  0.67930775     0.14400
C3217       C  0.70154210  0.91373254  0.85844380    -0.15200
C3218       C  0.70724408  0.90634556  0.88506545    -0.30300
H3219       H  0.72011095  0.91929974  0.84173373     0.13900
H3220       H  0.68903826  0.90158485  0.90191505     0.14400
C3221       C  0.72107872  0.80837459  0.95873975    -0.15200
C3222       C  0.68821097  0.78692638  0.95425656    -0.30300
H3223       H  0.73221526  0.80953667  0.97944152     0.13900
H3224       H  0.67706462  0.78701381  0.93383893     0.14400
C3225       C  0.79337093  0.79226829  0.84573635    -0.15200
C3226       C  0.79091315  0.79226071  0.81711584    -0.30300
H3227       H  0.80800332  0.78199687  0.85538334     0.13900
H3228       H  0.77796279  0.80425604  0.80734369     0.14400
C3229       C  0.87316091  0.88599776  0.94935172    -0.15200
C3230       C  0.86011630  0.86547816  0.97202854    -0.30300
H3231       H  0.89808999  0.89222321  0.94164734     0.13900
H3232       H  0.83378805  0.85590048  0.97769584     0.14400
C3233       C  0.85513245  0.99588897  0.88476170    -0.15200
C3234       C  0.88302578  0.50629044  0.86604677    -0.30300
H3235       H  0.84153507  0.00917230  0.88992413     0.13900
H3236       H  0.89503161  0.49206897  0.85906206     0.14400
C3237       C  0.80890901  0.91637230  0.77795944    -0.15200
C3238       C  0.78539002  0.89164458  0.79379869    -0.30300
H3239       H  0.83265266  0.93501626  0.78744440     0.13900
H3240       H  0.76200603  0.87271701  0.78398979     0.14400
C3241       C  0.79792924  0.58675575  0.60954275    -0.15200
C3242       C  0.79117418  0.59318069  0.63623568    -0.30300
H3243       H  0.77921694  0.58006613  0.59285063     0.13900
H3244       H  0.80964964  0.59912295  0.65302687     0.14400
C3245       C  0.90338797  0.68571767  0.53208025    -0.15200
C3246       C  0.91516374  0.71884765  0.53645131    -0.30300
H3247       H  0.89118445  0.67425793  0.51204609     0.13900
H3248       H  0.92593864  0.72980896  0.55701765     0.14400
C3249       C  0.50392909  0.64045641  0.52572497    -0.15200
C3250       C  0.98793247  0.61589016  0.54763880    -0.30300
H3251       H  0.48822584  0.64872283  0.51499851     0.13900
H3252       H  0.00506114  0.60975512  0.55879387     0.14400
C3253       C  0.50295872  0.70112590  0.67850450    -0.15200
C3254       C  0.00370457  0.70007420  0.64685054    -0.30300
H3255       H  0.47835204  0.69411307  0.68745712     0.13900
H3256       H  0.02805333  0.70546078  0.63823302     0.14400
C3257       C  0.85553943  0.98159694  0.60955255    -0.15200
C3258       C  0.87574133  0.50708314  0.62231265    -0.30300
H3259       H  0.83929576  0.98288873  0.59331242     0.13900
H3260       H  0.88855142  0.50587834  0.64139400     0.14400
C3261       C  0.91007588  0.61276469  0.71647457    -0.15200
C3262       C  0.89006600  0.61603771  0.69748460    -0.30300
H3263       H  0.93502637  0.61733045  0.71041377     0.13900
H3264       H  0.86529137  0.61197815  0.70353230     0.14400
loop_ 
_geom_bond_atom_site_label_1 
_geom_bond_atom_site_label_2 
_geom_bond_distance 
_geom_bond_site_symmetry_2 
_ccdc_geom_bond_type 
O1          Cr19   1.991       .  S
O1            C9   1.260       .  A
O2          Cr19   1.979       .  S
O2            C3   1.261       .  A
C3            O4   1.261       .  A
C3          C398   1.463       .  S
O4          Cr20   1.986       .  S
O5          Cr20   1.966       .  S
O5            C6   1.258       .  A
C6            O7   1.273       .  A
C6          C389   1.482       .  S
O7          Cr21   2.029       .  S
O8          Cr21   2.001       .  S
O8            C9   1.257       .  A
C9          C394   1.491       .  S
O10         Cr19   1.966       .  S
O10          C18   1.260       .  A
O11         Cr19   1.991       .  S
O11          C12   1.258       .  A
C12          O13   1.263       .  A
C12         C406   1.457       .  S
O13         Cr20   1.963       .  S
O14         Cr20   1.986       .  S
O14          C15   1.262       .  A
C15          O16   1.260       .  A
C15         C385   1.467       .  S
O16         Cr21   1.985       .  S
O17         Cr21   2.053       .  S
O17          C18   1.278       .  A
C18         C402   1.505       .  S
Cr19         O22   1.774       .  S
Cr20         O22   1.770       .  S
Cr21         O22   1.776       .  S
O23         Cr41   1.972       .  S
O23          C31   1.263       .  A
O24         Cr41   1.985       .  S
O24          C25   1.263       .  A
C25          O26   1.262       .  A
C25         C369   1.470       .  S
O26         Cr42   1.987       .  S
O27         Cr42   1.995       .  S
O27          C28   1.262       .  A
C28          O29   1.255       .  A
C28         C365   1.471       .  S
O29         Cr43   1.973       .  S
O30         Cr43   2.039       .  S
O30          C31   1.276       .  A
C31         C373   1.486       .  S
O32         Cr41   2.011       .  S
O32          C40   1.260       .  A
O33         Cr41   1.992       .  S
O33          C34   1.270       .  A
C34          O35   1.256       .  A
C34         C382   1.458       .  S
O35         Cr42   1.972       .  S
O36         Cr42   1.946       .  S
O36          C37   1.251       .  A
C37          O38   1.272       .  A
C37         C362   1.475       .  S
O38         Cr43   2.039       .  S
O39         Cr43   1.994       .  S
O39          C40   1.257       .  A
C40         C377   1.490       .  S
Cr41         O44   1.772       .  S
Cr42         O44   1.777       .  S
Cr43         O44   1.777       .  S
O45         Cr63   1.988       .  S
O45          C53   1.259       .  A
O46         Cr63   1.976       .  S
O46          C47   1.260       .  A
C47          O48   1.262       .  A
C47         C370   1.464       .  S
O48         Cr64   2.005       .  S
O49         Cr64   1.980       .  S
O49          C50   1.264       .  A
C50          O51   1.268       .  A
C50         C345   1.478       .  S
O51         Cr65   2.012       .  S
O52         Cr65   2.011       .  S
O52          C53   1.266       .  A
C53         C357   1.477       .  S
O54         Cr63   1.970       .  S
O54          C62   1.261       .  A
O55         Cr63   1.990       .  S
O55          C56   1.262       .  A
C56          O57   1.257       .  A
C56         C353   1.459       .  S
O57         Cr64   1.971       .  S
O58         Cr64   1.980       .  S
O58          C59   1.260       .  A
C59          O60   1.262       .  A
C59         C341   1.463       .  S
O60         Cr65   1.998       .  S
O61         Cr65   2.022       .  S
O61          C62   1.267       .  A
C62         C350   1.483       .  S
Cr63         O66   1.761       .  S
Cr64         O66   1.776       .  S
Cr65         O66   1.772       .  S
O67         Cr85   1.993       .  S
O67          C75   1.260       .  A
O68         Cr85   1.969       .  S
O68          C69   1.259       .  A
C69          O70   1.265       .  A
C69         C330   1.465   1_455  S
O70         Cr86   2.014       .  S
O71         Cr86   1.990       .  S
O71          C72   1.266       .  A
C72          O73   1.262       .  A
C72         C325   1.473       .  S
O73         Cr87   1.992       .  S
O74         Cr87   2.007       .  S
O74          C75   1.265       .  A
C75         C349   1.476       .  S
O76         Cr85   1.963       .  S
O76          C84   1.257       .  A
O77         Cr85   1.998       .  S
O77          C78   1.264       .  A
C78          O79   1.256       .  A
C78         C337   1.466       .  S
O79         Cr86   1.973       .  S
O80         Cr86   1.985       .  S
O80          C81   1.264       .  A
C81          O82   1.266       .  A
C81         C361   1.470       .  S
O82         Cr87   2.000       .  S
O83         Cr87   2.013       .  S
O83          C84   1.263       .  A
C84         C333   1.459       .  S
Cr85         O88   1.761       .  S
Cr86         O88   1.771       .  S
Cr87         O88   1.773       .  S
O89        Cr107   1.958       .  S
O89          C97   1.259       .  A
O90        Cr107   1.993       .  S
O90          C91   1.264       .  A
C91          O92   1.258       .  A
C91         C318   1.462       .  S
O92        Cr108   1.979       .  S
O93        Cr108   2.013       .  S
O93          C94   1.268       .  A
C94          O95   1.261       .  A
C94         C346   1.480       .  S
O95        Cr109   1.981       .  S
O96        Cr109   2.027       .  S
O96          C97   1.271       .  A
C97         C321   1.466       .  S
O98        Cr107   1.997       .  S
O98         C106   1.261       .  A
O99        Cr107   1.979       .  S
O99         C100   1.261       .  A
C100        O101   1.266       .  A
C100        C314   1.468       .  S
O101       Cr108   2.000       .  S
O102       Cr108   1.958       .  S
O102        C103   1.254       .  A
C103        O104   1.267       .  A
C103        C386   1.469       .  S
O104       Cr109   2.024       .  S
O105       Cr109   1.996       .  S
O105        C106   1.261       .  A
C106        C309   1.482   1_545  S
Cr107       O110   1.767       .  S
Cr108       O110   1.764       .  S
Cr109       O110   1.773       .  S
O111       Cr129   1.953       .  S
O111        C119   1.256       .  A
O112       Cr129   1.989       .  S
O112        C113   1.260       .  A
C113        O114   1.254       .  A
C113        C305   1.459   1_545  S
O114       Cr130   1.972       .  S
O115       Cr130   2.025       .  S
O115        C116   1.273       .  A
C116        O117   1.263       .  A
C116        C298   1.482       .  S
O117       Cr131   1.976       .  S
O118       Cr131   2.040       .  S
O118        C119   1.273       .  A
C119        C334   1.466       .  S
O120       Cr129   1.996       .  S
O120        C128   1.261       .  A
O121       Cr129   1.949       .  S
O121        C530   1.254       .  A
C122        O529   1.260   1_554  A
C122        O531   1.263   1_554  A
C122        C313   1.455       .  S
O123       Cr130   2.005       .  S
O123        C530   1.270       .  A
O124       Cr130   1.970       .  S
O124        C125   1.252       .  A
C125        O126   1.267       .  A
C125        C293   1.480       .  S
O126       Cr131   2.025       .  S
O127       Cr131   1.999       .  S
O127        C128   1.263       .  A
C128        C302   1.479       .  S
Cr129       O132   1.770       .  S
Cr130       O132   1.767       .  S
Cr131       O132   1.774       .  S
O133       Cr151   1.961       .  S
O133        C141   1.259       .  A
O134       Cr151   2.003       .  S
O134        C135   1.264       .  A
C135        O136   1.258       .  A
C135        C397   1.466   1_455  S
O136       Cr152   1.978       .  S
O137       Cr152   2.024       .  S
O137        C138   1.272       .  A
C138        O139   1.255       .  A
C138        C326   1.476       .  S
O139       Cr153   1.962       .  S
O140       Cr153   2.042       .  S
O140        C141   1.275       .  A
C141        C290   1.476       .  S
O142       Cr151   2.007       .  S
O142        C150   1.264       .  A
O143       Cr151   1.968       .  S
O143        C144   1.258       .  A
C144        O145   1.267       .  A
C144        C285   1.460       .  S
O145       Cr152   1.997       .  S
O146       Cr152   1.962       .  S
O146        C147   1.251       .  A
C147        O148   1.273       .  A
C147        C282   1.485       .  S
O148       Cr153   2.047       .  S
O149       Cr153   1.983       .  S
O149        C150   1.258       .  A
C150        C322   1.478       .  S
Cr151       O154   1.765       .  S
Cr152       O154   1.766       .  S
Cr153       O154   1.772       .  S
O155       Cr173   1.978       .  S
O155        C163   1.252       .  A
O156       Cr173   1.985       .  S
O156        C157   1.267       .  A
C157        O158   1.260       .  A
C157        C277   1.469       .  S
O158       Cr174   1.984       .  S
O159       Cr174   2.009       .  S
O159        C160   1.267       .  A
C160        O161   1.259       .  A
C160        C273   1.485       .  S
O161       Cr175   1.988       .  S
O162       Cr175   2.033       .  S
O162        C163   1.266       .  A
C163        C401   1.483       .  S
O164       Cr173   1.972       .  S
O164        C172   1.262       .  A
O165       Cr173   1.965       .  S
O165        C166   1.251       .  A
C166        O167   1.267       .  A
C166        C381   1.460       .  S
O167       Cr174   1.993       .  S
O168       Cr174   1.983       .  S
O168        C169   1.262       .  A
C169        O170   1.270       .  A
C169        C281   1.483       .  S
O170       Cr175   2.014       .  S
O171       Cr175   2.023       .  S
O171        C172   1.268       .  A
C172        C358   1.485       .  S
Cr173       O176   1.778       .  S
Cr174       O176   1.779       .  S
Cr175       O176   1.779       .  S
O177       Cr603   2.004       .  S
O177        C185   1.265       .  A
O178       Cr195   1.973       .  S
O178        C179   1.256       .  A
C179        O180   1.259       .  A
C179        C317   1.460       .  S
O180       Cr196   1.999       .  S
O181       Cr196   1.973       .  S
O181        C590   1.262   1_554  A
C182        O183   1.275       .  A
C182        O589   1.266       .  A
C182        C366   1.470       .  S
O183       Cr197   2.021       .  S
O184       Cr197   1.983       .  S
O184        C185   1.258       .  A
C185        C301   1.480       .  S
O186       Cr195   1.961       .  S
O186        C194   1.259       .  A
O187       Cr195   2.006       .  S
O187        C188   1.268       .  A
C188        O189   1.256       .  A
C188        C286   1.455       .  S
O189       Cr196   1.958       .  S
O190       Cr196   1.980       .  S
O190        C191   1.259       .  A
C191        O600   1.264       .  A
C191        C269   1.472       .  S
O192       Cr197   1.996       .  S
O192        C599   1.258       .  A
O193       Cr197   2.033       .  S
O193        C602   1.270       .  A
C194        O601   1.265   1_554  A
C194        C393   1.471   1_455  S
Cr195       O585   1.994   1_554  S
Cr195       O198   1.762       .  S
Cr196       O198   1.776       .  S
Cr197       O606   1.770       .  S
O198       Cr605   1.769   1_554  S
O199       Cr217   1.959       .  S
O199        C207   1.260       .  A
O200       Cr217   2.014       .  S
O200        C201   1.268       .  A
C201        O202   1.260       .  A
C201        C306   1.468       .  S
O202       Cr218   1.975       .  S
O203       Cr218   2.038       .  S
O203        C204   1.274       .  A
C204        O205   1.255       .  A
C204        C274   1.486       .  S
O205       Cr219   1.967       .  S
O206       Cr219   2.035       .  S
O206        C207   1.275       .  A
C207        C310   1.472       .  S
O208       Cr217   2.013       .  S
O208        C216   1.264       .  A
O209       Cr217   1.971       .  S
O209        C618   1.258   1_554  A
C210        O617   1.258       .  A
C210        O619   1.267       .  A
C210        C338   1.464       .  S
O211       Cr218   2.010       .  S
O211        C618   1.267   1_554  A
O212       Cr218   1.950       .  S
O212        C213   1.250       .  A
C213        O214   1.272       .  A
C213        C270   1.477       .  S
O214       Cr219   2.042       .  S
O215       Cr219   1.982       .  S
O215        C216   1.257       .  A
C216        C266   1.483   1_455  S
Cr217       O220   1.765       .  S
Cr218       O220   1.768       .  S
Cr219       O220   1.771       .  S
O221       Cr239   1.956       .  S
O221        C229   1.261       .  A
O222       Cr239   1.987       .  S
O222        C223   1.262       .  A
C223        O224   1.261       .  A
C223        C278   1.469       .  S
O224       Cr240   1.985       .  S
O225       Cr240   1.996       .  S
O225        C226   1.262       .  A
C226        O227   1.260       .  A
C226        C297   1.486       .  S
O227       Cr241   1.990       .  S
O228       Cr241   2.042       .  S
O228        C229   1.279       .  A
C229        C378   1.477       .  S
O230       Cr239   2.004       .  S
O230        C238   1.258       .  A
O231       Cr239   1.978       .  S
O231        C232   1.265       .  A
C232        O233   1.258       .  A
C232        C405   1.448       .  S
O233       Cr240   1.975       .  S
O234       Cr240   1.942       .  S
O234        C235   1.252       .  A
C235        O236   1.269       .  A
C235        C342   1.472       .  S
O236       Cr241   2.026       .  S
O237       Cr241   1.997       .  S
O237        C238   1.255       .  A
C238        C289   1.490       .  S
Cr239       O242   1.780       .  S
Cr240       O242   1.781       .  S
Cr241       O242   1.780       .  S
O243       Cr261   1.962       .  S
O243        C659   1.260       .  A
O244       Cr261   1.995       .  S
O244        C245   1.264       .  A
C245        O246   1.258       .  A
C245        C329   1.467       .  S
O246       Cr262   1.982       .  S
O247       Cr262   2.007       .  S
O247        C656   1.267       .  A
C248        O249   1.264       .  A
C248        O655   1.262   1_554  A
C248        C390   1.482       .  S
O249       Cr263   1.996       .  S
O250       Cr263   2.031       .  S
O250        C251   1.272       .  A
C251        O651   1.260   1_554  A
C251        C265   1.486       .  S
O252       Cr261   2.002       .  S
O252        C260   1.260       .  A
O253       Cr261   1.969       .  S
O253        C254   1.259       .  A
C254        O255   1.265       .  A
C254        C354   1.458       .  S
O255       Cr262   1.995       .  S
O256       Cr262   1.953       .  S
O256        C257   1.252       .  A
C257        O666   1.272       .  A
C257        C294   1.483       .  S
O258       Cr263   2.022   1_556  S
O258        C665   1.270       .  A
O259       Cr263   2.003   1_556  S
O259        C668   1.262       .  A
C260        O667   1.263       .  A
C260        C374   1.495       .  S
Cr261       O264   1.770       .  S
Cr262       O264   1.771       .  S
Cr263       O672   1.774   1_554  S
O264       Cr671   1.773       .  S
C265        H267   1.086       .  S
C265       C1898   1.346       .  D
C266        H268   1.087       .  S
C266       C1897   1.344       .  D
C269        H271   1.086       .  S
C269        C270   1.355       .  D
C270        H272   1.086       .  S
C273        H275   1.087       .  S
C273        C274   1.340       .  D
C274        H276   1.087       .  S
C277        H279   1.088       .  S
C277       C1094   1.358       .  D
C278        H280   1.087   1_545  S
C278       C1093   1.353       .  D
C281        H283   1.086       .  S
C281        C282   1.357       .  D
C282        H284   1.087       .  S
C285        H287   1.087       .  S
C285        C286   1.339       .  D
C286        H288   1.087       .  S
C289        H291   1.092       .  S
C289       C1922   1.348       .  D
C290        H292   1.086   1_455  S
C290       C1921   1.347   1_455  D
C293        H295   1.087       .  S
C293        C294   1.356       .  D
C294        H296   1.086       .  S
C297        H299   1.086       .  S
C297        C298   1.348       .  D
C298        H300   1.087       .  S
C301        H303   1.087       .  S
C301        C302   1.340       .  D
C302        H304   1.087       .  S
C305       H1123   1.087       .  S
C305       C1530   1.347   1_565  D
C306       H1124   1.086       .  S
C306       C1529   1.352   1_554  D
H307       C1121   1.087       .  S
H308       C1122   1.087   1_545  S
C309        H311   1.087       .  S
C309       C1126   1.347       .  D
C310        H312   1.086       .  S
C310       C1125   1.347       .  D
C313        H315   1.086       .  S
C313        C314   1.342       .  D
C314        H316   1.088       .  S
C317        H319   1.088       .  S
C317        C318   1.348       .  D
C318        H320   1.086       .  S
C321        H323   1.086       .  S
C321        C322   1.343       .  D
C322        H324   1.088       .  S
C325        H327   1.087       .  S
C325        C326   1.337       .  D
C326        H328   1.087       .  S
C329        H331   1.086       .  S
C329       C1962   1.348       .  D
C330        H332   1.089       .  S
C330       C1961   1.350       .  D
C333        H335   1.088       .  S
C333       C1150   1.340       .  D
C334        H336   1.087       .  S
C334       C1149   1.341   1_545  D
C337        H339   1.087       .  S
C337        C338   1.341       .  D
C338        H340   1.087       .  S
C341        H343   1.087       .  S
C341        C342   1.352       .  D
C342        H344   1.086       .  S
C345        H347   1.087       .  S
C345        C346   1.346       .  D
C346        H348   1.086       .  S
C349        H351   1.088   1_455  S
C349       C1982   1.343   1_455  D
C350        H352   1.086       .  S
C350       C1981   1.343       .  D
C353        H355   1.087       .  S
C353        C354   1.342       .  D
C354        H356   1.087       .  S
C357        H359   1.088       .  S
C357        C358   1.343       .  D
C358        H360   1.086       .  S
C361        H363   1.087       .  S
C361        C362   1.353       .  D
C362        H364   1.087       .  S
C365        H367   1.087       .  S
C365        C366   1.343       .  D
C366        H368   1.087       .  S
C369        H371   1.086       .  S
C369        C370   1.353       .  D
C370        H372   1.088       .  S
C373        H375   1.082       .  S
C373        C374   1.355       .  D
C374        H376   1.082       .  S
C377        H379   1.087       .  S
C377       C1194   1.349       .  D
C378        H380   1.087   1_545  S
C378       C1193   1.344       .  D
C381        H383   1.088       .  S
C381        C382   1.324       .  D
C382        H384   1.087       .  S
C385        H387   1.087       .  S
C385        C386   1.345       .  D
C386        H388   1.087       .  S
C389        H391   1.087       .  S
C389        C390   1.341       .  D
C390        H392   1.087       .  S
C393        H395   1.087       .  S
C393       C2026   1.340       .  D
C394        H396   1.086       .  S
C394       C2025   1.346       .  D
C397        H399   1.087       .  S
C397       C2030   1.350   1_655  D
C398        H400   1.088       .  S
C398       C2029   1.350       .  D
C401        H403   1.089       .  S
C401       C1218   1.344       .  D
C402        H404   1.086   1_545  S
C402       C1217   1.356   1_545  D
C405        H407   1.088       .  S
C405        C406   1.329       .  D
C406        H408   1.087       .  S
O409       Cr427   2.011       .  S
O409        C417   1.270       .  A
O410       Cr427   1.974       .  S
O410        C411   1.257       .  A
C411        O412   1.261       .  A
C411        C806   1.475       .  S
O412       Cr428   2.015       .  S
O413       Cr428   1.986       .  S
O413        C414   1.266       .  A
C414        O415   1.267       .  A
C414        C797   1.474       .  S
O415       Cr429   2.005       .  S
O416       Cr429   1.992       .  S
O416        C417   1.261       .  A
C417        C802   1.495       .  S
O418       Cr427   1.976       .  S
O418        C426   1.260       .  A
O419       Cr427   2.022       .  S
O419        C420   1.270       .  A
C420        O421   1.256       .  A
C420        C814   1.460       .  S
O421       Cr428   1.954       .  S
O422       Cr428   1.987       .  S
O422        C423   1.262       .  A
C423        O424   1.262       .  A
C423        C793   1.465       .  S
O424       Cr429   1.994       .  S
O425       Cr429   2.023       .  S
O425        C426   1.266       .  A
C426        C810   1.492   1_545  S
Cr427       O430   1.768       .  S
Cr428       O430   1.775       .  S
Cr429       O430   1.776       .  S
O431       Cr449   1.974       .  S
O431        C439   1.263       .  A
O432       Cr449   1.992       .  S
O432        C433   1.266       .  A
C433        O434   1.259       .  A
C433        C777   1.460       .  S
O434       Cr450   1.974       .  S
O435       Cr450   1.981       .  S
O435        C436   1.261       .  A
C436        O437   1.256       .  A
C436        C773   1.471       .  S
O437       Cr451   1.980       .  S
O438       Cr451   2.035       .  S
O438        C439   1.275       .  A
C439        C781   1.488       .  S
O440       Cr449   2.009       .  S
O440        C448   1.261       .  A
O441       Cr449   1.994       .  S
O441        C442   1.267       .  A
C442        O443   1.255       .  A
C442        C790   1.458       .  S
O443       Cr450   1.975       .  S
O444       Cr450   1.942       .  S
O444        C445   1.252       .  A
C445        O446   1.271       .  A
C445        C770   1.469       .  S
O446       Cr451   2.031       .  S
O447       Cr451   1.993       .  S
O447        C448   1.257       .  A
C448        C785   1.488       .  S
Cr449       O452   1.768       .  S
Cr450       O452   1.771       .  S
Cr451       O452   1.774       .  S
O453       Cr471   2.009       .  S
O453        C461   1.268       .  A
O454       Cr471   1.974       .  S
O454        C455   1.255       .  A
C455        O456   1.255       .  A
C455        C778   1.458       .  S
O456       Cr472   1.986       .  S
O457       Cr472   1.970       .  S
O457        C458   1.265       .  A
C458        O459   1.270       .  A
C458        C753   1.466       .  S
O459       Cr473   2.010       .  S
O460       Cr473   2.011       .  S
O460        C461   1.265       .  A
C461        C765   1.506       .  S
O462       Cr471   1.962       .  S
O462        C470   1.257       .  A
O463       Cr471   2.014       .  S
O463        C464   1.270       .  A
C464        O465   1.259       .  A
C464        C761   1.457       .  S
O465       Cr472   1.957       .  S
O466       Cr472   1.969       .  S
O466        C467   1.254       .  A
C467        O468   1.264       .  A
C467        C749   1.471       .  S
O468       Cr473   2.016       .  S
O469       Cr473   2.023       .  S
O469        C470   1.267       .  A
C470        C758   1.491       .  S
Cr471       O474   1.767       .  S
Cr472       O474   1.776       .  S
Cr473       O474   1.772       .  S
O475       Cr493   1.956       .  S
O475        C483   1.262       .  A
O476       Cr493   2.006       .  S
O476        C477   1.265       .  A
C477        O478   1.258       .  A
C477        C738   1.462   1_455  S
O478       Cr494   1.974       .  S
O479       Cr494   2.025       .  S
O479        C480   1.270       .  A
C480        O481   1.254       .  A
C480        C733   1.476       .  S
O481       Cr495   1.958       .  S
O482       Cr495   2.030       .  S
O482        C483   1.275       .  A
C483        C757   1.482       .  S
O484       Cr493   2.011       .  S
O484        C492   1.261       .  A
O485       Cr493   1.973       .  S
O485        C486   1.260       .  A
C486        O487   1.268       .  A
C486        C745   1.456       .  S
O487       Cr494   2.008       .  S
O488       Cr494   1.949       .  S
O488        C489   1.252       .  A
C489        O490   1.268       .  A
C489        C769   1.468       .  S
O490       Cr495   2.019       .  S
O491       Cr495   1.984       .  S
O491        C492   1.254       .  A
C492        C741   1.482       .  S
Cr493       O496   1.770       .  S
Cr494       O496   1.771       .  S
Cr495       O496   1.772       .  S
O497       Cr515   1.962       .  S
O497        C505   1.260       .  A
O498       Cr515   2.012       .  S
O498        C499   1.268       .  A
C499        O500   1.260       .  A
C499        C726   1.470       .  S
O500       Cr516   1.977       .  S
O501       Cr516   1.996       .  S
O501        C502   1.264       .  A
C502        O503   1.257       .  A
C502        C754   1.472       .  S
O503       Cr517   1.977       .  S
O504       Cr517   2.029       .  S
O504        C505   1.272       .  A
C505        C729   1.472       .  S
O506       Cr515   2.014       .  S
O506        C514   1.265       .  A
O507       Cr515   1.971       .  S
O507        C508   1.260       .  A
C508        O509   1.256       .  A
C508        C722   1.447       .  S
O509       Cr516   1.976       .  S
O510       Cr516   1.949       .  S
O510        C511   1.251       .  A
C511        O512   1.271       .  A
C511        C794   1.473       .  S
O512       Cr517   2.036       .  S
O513       Cr517   1.981       .  S
O513        C514   1.258       .  A
C514        C717   1.484       .  S
Cr515       O518   1.769       .  S
Cr516       O518   1.770       .  S
Cr517       O518   1.776       .  S
O519       Cr537   1.943       .  S
O519        C527   1.256       .  A
O520       Cr537   1.991       .  S
O520        C521   1.263       .  A
C521        O522   1.263       .  A
C521        C713   1.466   1_545  S
O522       Cr538   1.990       .  S
O523       Cr538   2.020       .  S
O523        C524   1.268       .  A
C524        O525   1.258       .  A
C524        C706   1.493       .  S
O525       Cr539   1.982       .  S
O526       Cr539   2.037       .  S
O526        C527   1.276       .  A
C527        C742   1.468       .  S
O528       Cr537   1.999       .  S
O528        C536   1.260       .  A
O529       Cr537   1.972       .  S
C530        C721   1.455       .  S
O531       Cr538   2.005       .  S
O532       Cr538   1.953       .  S
O532        C533   1.256       .  A
C533        O534   1.270       .  A
C533        C701   1.473       .  S
O534       Cr539   2.026       .  S
O535       Cr539   1.989       .  S
O535        C536   1.255       .  A
C536        C710   1.485       .  S
Cr537       O540   1.776       .  S
Cr538       O540   1.774       .  S
Cr539       O540   1.782       .  S
O541       Cr559   1.957       .  S
O541        C549   1.261       .  A
O542       Cr559   2.015       .  S
O542        C543   1.265       .  A
C543        O544   1.260       .  A
C543        C805   1.478       .  S
O544       Cr560   1.986       .  S
O545       Cr560   2.019       .  S
O545        C546   1.272       .  A
C546        O547   1.258       .  A
C546        C734   1.479       .  S
O547       Cr561   1.968       .  S
O548       Cr561   2.035       .  S
O548        C549   1.275       .  A
C549        C698   1.468       .  S
O550       Cr559   2.004       .  S
O550        C558   1.262       .  A
O551       Cr559   1.961       .  S
O551        C552   1.256       .  A
C552        O553   1.268       .  A
C552        C693   1.457       .  S
O553       Cr560   1.994       .  S
O554       Cr560   1.965       .  S
O554        C555   1.252       .  A
C555        O556   1.270       .  A
C555        C690   1.483       .  S
O556       Cr561   2.038       .  S
O557       Cr561   1.988       .  S
O557        C558   1.258       .  A
C558        C730   1.482       .  S
Cr559       O562   1.773       .  S
Cr560       O562   1.764       .  S
Cr561       O562   1.776       .  S
O563       Cr581   1.988       .  S
O563        C571   1.259       .  A
O564       Cr581   1.980       .  S
O564        C565   1.260       .  A
C565        O566   1.259       .  A
C565        C685   1.471       .  S
O566       Cr582   1.992       .  S
O567       Cr582   1.991       .  S
O567        C568   1.267       .  A
C568        O569   1.275       .  A
C568        C681   1.496       .  S
O569       Cr583   2.031       .  S
O570       Cr583   2.012       .  S
O570        C571   1.260       .  A
C571        C809   1.496       .  S
O572       Cr581   1.958       .  S
O572        C580   1.257       .  A
O573       Cr581   1.991       .  S
O573        C574   1.259       .  A
C574        O575   1.267       .  A
C574        C789   1.462       .  S
O575       Cr582   1.979       .  S
O576       Cr582   1.987       .  S
O576        C577   1.259       .  A
C577        O578   1.263       .  A
C577        C689   1.480       .  S
O578       Cr583   2.006       .  S
O579       Cr583   2.063       .  S
O579        C580   1.278       .  A
C580        C766   1.499       .  S
Cr581       O584   1.780       .  S
Cr582       O584   1.780       .  S
Cr583       O584   1.780       .  S
O585        C593   1.261       .  A
O586       Cr603   1.969       .  S
O586        C587   1.249       .  A
C587        O588   1.257       .  A
C587        C725   1.470       .  S
O588       Cr604   2.017       .  S
O589       Cr604   1.966       .  S
C590        O591   1.266       .  A
C590        C774   1.460       .  S
O591       Cr605   1.996       .  S
O592       Cr605   2.002       .  S
O592        C593   1.264       .  A
C593        C709   1.476       .  S
O594       Cr603   1.945       .  S
O594        C602   1.252       .  A
O595       Cr603   2.019       .  S
O595        C596   1.274       .  A
C596        O597   1.257       .  A
C596        C694   1.449       .  S
O597       Cr604   1.940       .  S
O598       Cr604   1.989       .  S
O598        C599   1.260       .  A
C599        C677   1.468       .  S
O600       Cr605   2.006   1_554  S
O601       Cr605   2.012       .  S
C602        C801   1.478       .  S
Cr603       O606   1.764       .  S
Cr604       O606   1.779       .  S
O607       Cr625   1.966       .  S
O607        C615   1.259       .  A
O608       Cr625   2.006       .  S
O608        C609   1.266       .  A
C609        O610   1.260       .  A
C609        C714   1.468       .  S
O610       Cr626   1.980       .  S
O611       Cr626   2.035       .  S
O611        C612   1.272       .  A
C612        O613   1.263       .  A
C612        C682   1.495       .  S
O613       Cr627   1.987       .  S
O614       Cr627   2.038       .  S
O614        C615   1.275       .  A
C615        C718   1.479       .  S
O616       Cr625   2.014       .  S
O616        C624   1.265       .  A
O617       Cr625   1.967       .  S
C618        C746   1.455       .  S
O619       Cr626   2.008       .  S
O620       Cr626   1.953       .  S
O620        C621   1.252       .  A
C621        O622   1.269       .  A
C621        C678   1.474       .  S
O622       Cr627   2.033       .  S
O623       Cr627   2.001       .  S
O623        C624   1.261       .  A
C624        C674   1.497   1_455  S
Cr625       O628   1.772       .  S
Cr626       O628   1.770       .  S
Cr627       O628   1.775       .  S
O629       Cr647   1.962       .  S
O629        C637   1.259       .  A
O630       Cr647   1.990       .  S
O630        C631   1.261       .  A
C631        O632   1.260       .  A
C631        C686   1.467       .  S
O632       Cr648   1.981       .  S
O633       Cr648   2.044       .  S
O633        C634   1.274       .  A
C634        O635   1.257       .  A
C634        C705   1.488       .  S
O635       Cr649   1.963       .  S
O636       Cr649   2.045       .  S
O636        C637   1.277       .  A
C637        C786   1.477       .  S
O638       Cr647   2.004       .  S
O638        C646   1.261       .  A
O639       Cr647   1.975       .  S
O639        C640   1.261       .  A
C640        O641   1.271       .  A
C640        C813   1.470       .  S
O641       Cr648   2.008       .  S
O642       Cr648   1.952       .  S
O642        C643   1.251       .  A
C643        O644   1.270       .  A
C643        C750   1.476       .  S
O644       Cr649   2.033       .  S
O645       Cr649   1.980       .  S
O645        C646   1.254       .  A
C646        C697   1.478       .  S
Cr647       O650   1.772       .  S
Cr648       O650   1.770       .  S
Cr649       O650   1.776       .  S
O651       Cr669   1.966       .  S
O652       Cr669   2.004       .  S
O652        C653   1.268       .  A
C653        O654   1.259       .  A
C653        C737   1.459       .  S
O654       Cr670   1.971       .  S
O655       Cr670   2.004       .  S
C656        O657   1.260       .  A
C656        C798   1.481       .  S
O657       Cr671   1.982       .  S
O658       Cr671   2.046       .  S
O658        C659   1.278       .  A
C659        C673   1.481       .  S
O660       Cr669   2.003       .  S
O660        C668   1.263       .  A
O661       Cr669   1.980       .  S
O661        C662   1.256       .  A
C662        O663   1.260       .  A
C662        C762   1.466       .  S
O663       Cr670   1.983       .  S
O664       Cr670   1.962       .  S
O664        C665   1.256       .  A
C665        C702   1.471       .  S
O666       Cr671   2.043       .  S
O667       Cr671   2.007       .  S
C668        C782   1.496       .  S
Cr669       O672   1.776       .  S
Cr670       O672   1.773       .  S
C673        H675   1.086       .  S
C673       C2306   1.347       .  D
C674        H676   1.087       .  S
C674       C2305   1.351       .  D
C677        H679   1.087       .  S
C677        C678   1.349       .  D
C678        H680   1.087       .  S
C681        H683   1.086       .  S
C681        C682   1.352       .  D
C682        H684   1.087       .  S
C685        H687   1.088       .  S
C685       C1502   1.355       .  D
C686        H688   1.086   1_545  S
C686       C1501   1.356       .  D
C689        H691   1.086       .  S
C689        C690   1.353       .  D
C690        H692   1.087       .  S
C693        H695   1.087       .  S
C693        C694   1.334       .  D
C694        H696   1.088       .  S
C697        H699   1.087       .  S
C697       C2330   1.341       .  D
C698        H700   1.086   1_455  S
C698       C2329   1.344   1_455  D
C701        H703   1.086       .  S
C701        C702   1.350       .  D
C702        H704   1.087       .  S
C705        H707   1.087       .  S
C705        C706   1.345       .  D
C706        H708   1.086       .  S
C709        H711   1.087       .  S
C709        C710   1.345       .  D
C710        H712   1.087       .  S
C713       H1531   1.087       .  S
C713       C1122   1.349   1_556  D
C714       H1532   1.087       .  S
C714       C1121   1.351       .  D
H715       C1529   1.086       .  S
H716       C1530   1.088       .  S
C717        H719   1.088   1_545  S
C717       C1534   1.344   1_545  D
C718        H720   1.086       .  S
C718       C1533   1.348       .  D
C721        H723   1.088       .  S
C721        C722   1.329       .  D
C722        H724   1.088       .  S
C725        H727   1.087       .  S
C725        C726   1.350       .  D
C726        H728   1.086       .  S
C729        H731   1.086       .  S
C729        C730   1.345       .  D
C730        H732   1.087       .  S
C733        H735   1.087       .  S
C733        C734   1.339       .  D
C734        H736   1.087       .  S
C737        H739   1.088       .  S
C737       C2370   1.348       .  D
C738        H740   1.088       .  S
C738       C2369   1.350       .  D
C741        H743   1.088       .  S
C741       C1558   1.345       .  D
C742        H744   1.088   1_545  S
C742       C1557   1.343   1_545  D
C745        H747   1.090       .  S
C745        C746   1.336       .  D
C746        H748   1.090       .  S
C749        H751   1.086       .  S
C749        C750   1.355       .  D
C750        H752   1.086       .  S
C753        H755   1.087       .  S
C753        C754   1.342       .  D
C754        H756   1.087       .  S
C757        H759   1.086       .  S
C757       C2390   1.342   1_455  D
C758        H760   1.086       .  S
C758       C2389   1.349       .  D
C761        H763   1.088       .  S
C761        C762   1.342       .  D
C762        H764   1.087       .  S
C765        H767   1.086       .  S
C765        C766   1.352       .  D
C766        H768   1.087       .  S
C769        H771   1.088       .  S
C769        C770   1.353       .  D
C770        H772   1.087       .  S
C773        H775   1.087       .  S
C773        C774   1.342       .  D
C774        H776   1.087       .  S
C777        H779   1.086       .  S
C777        C778   1.350       .  D
C778        H780   1.088       .  S
C781        H783   1.086       .  S
C781        C782   1.354       .  D
C782        H784   1.087       .  S
C785        H787   1.088       .  S
C785       C1602   1.346       .  D
C786        H788   1.086       .  S
C786       C1601   1.347   1_545  D
C789        H791   1.087       .  S
C789        C790   1.328       .  D
C790        H792   1.088       .  S
C793        H795   1.087       .  S
C793        C794   1.350       .  D
C794        H796   1.087       .  S
C797        H799   1.087       .  S
C797        C798   1.343       .  D
C798        H800   1.086       .  S
C801        H803   1.088       .  S
C801       C2434   1.343   1_455  D
C802        H804   1.086       .  S
C802       C2433   1.345       .  D
C805        H807   1.086   1_455  S
C805       C2438   1.353       .  D
C806        H808   1.089       .  S
C806       C2437   1.354       .  D
C809        H811   1.086       .  S
C809       C1626   1.347       .  D
C810        H812   1.086       .  S
C810       C1625   1.345       .  D
C813        H815   1.087       .  S
C813        C814   1.341       .  D
C814        H816   1.087       .  S
O817       Cr835   1.998       .  S
O817        C825   1.263       .  A
O818       Cr835   1.973       .  S
O818        C819   1.258       .  A
C819        O820   1.260       .  A
C819       C1214   1.454       .  S
O820       Cr836   1.991       .  S
O821       Cr836   1.990       .  S
O821        C822   1.265       .  A
C822        O823   1.267       .  A
C822       C1205   1.483       .  S
O823       Cr837   2.011       .  S
O824       Cr837   2.018       .  S
O824        C825   1.267       .  A
C825       C1210   1.488       .  S
O826       Cr835   1.975       .  S
O826        C834   1.262       .  A
O827       Cr835   2.011       .  S
O827        C828   1.266       .  A
C828        O829   1.258       .  A
C828       C1222   1.472       .  S
O829       Cr836   1.975       .  S
O830       Cr836   1.972       .  S
O830        C831   1.259       .  A
C831        O832   1.266       .  A
C831       C1201   1.468       .  S
O832       Cr837   2.007       .  S
O833       Cr837   2.028       .  S
O833        C834   1.268       .  A
C834       C1218   1.490       .  S
Cr835       O838   1.768       .  S
Cr836       O838   1.777       .  S
Cr837       O838   1.773       .  S
O839       Cr857   1.972       .  S
O839        C847   1.261       .  A
O840       Cr857   2.015       .  S
O840        C841   1.268       .  A
C841        O842   1.254       .  A
C841       C1185   1.463       .  S
O842       Cr858   1.963       .  S
O843       Cr858   2.026       .  S
O843        C844   1.270       .  A
C844        O845   1.254       .  A
C844       C1181   1.479       .  S
O845       Cr859   1.966       .  S
O846       Cr859   2.040       .  S
O846        C847   1.276       .  A
C847       C1189   1.483       .  S
O848       Cr857   2.015       .  S
O848        C856   1.267       .  A
O849       Cr857   1.975       .  S
O849        C850   1.259       .  A
C850        O851   1.266       .  A
C850       C1198   1.465       .  S
O851       Cr858   2.002       .  S
O852       Cr858   1.938       .  S
O852        C853   1.247       .  A
C853        O854   1.275       .  A
C853       C1178   1.478       .  S
O854       Cr859   2.050       .  S
O855       Cr859   1.978       .  S
O855        C856   1.257       .  A
C856       C1193   1.484   1_565  S
Cr857       O860   1.766       .  S
Cr858       O860   1.765       .  S
Cr859       O860   1.770       .  S
O861       Cr879   1.985       .  S
O861        C869   1.257       .  A
O862       Cr879   1.967       .  S
O862        C863   1.256       .  A
C863        O864   1.263       .  A
C863       C1186   1.462       .  S
O864       Cr880   2.011       .  S
O865       Cr880   1.979       .  S
O865        C866   1.265       .  A
C866        O867   1.273       .  A
C866       C1161   1.490       .  S
O867       Cr881   2.032       .  S
O868       Cr881   2.012       .  S
O868        C869   1.264       .  A
C869       C1173   1.477       .  S
O870       Cr879   1.948       .  S
O870        C878   1.256       .  A
O871       Cr879   1.992       .  S
O871        C872   1.262       .  A
C872        O873   1.257       .  A
C872       C1169   1.455       .  S
O873       Cr880   1.967       .  S
O874       Cr880   1.984       .  S
O874        C875   1.262       .  A
C875        O876   1.262       .  A
C875       C1157   1.465       .  S
O876       Cr881   1.994       .  S
O877       Cr881   2.059       .  S
O877        C878   1.275       .  A
C878       C1166   1.486       .  S
Cr879       O882   1.759       .  S
Cr880       O882   1.775       .  S
Cr881       O882   1.771       .  S
O883       Cr901   1.989       .  S
O883        C891   1.259       .  A
O884       Cr901   1.970       .  S
O884        C885   1.257       .  A
C885        O886   1.264       .  A
C885       C1146   1.464   1_455  S
O886       Cr902   2.011       .  S
O887       Cr902   1.994       .  S
O887        C888   1.266       .  A
C888        O889   1.267       .  A
C888       C1141   1.489       .  S
O889       Cr903   2.013       .  S
O890       Cr903   2.014       .  S
O890        C891   1.265       .  A
C891       C1165   1.478       .  S
O892       Cr901   1.965       .  S
O892        C900   1.260       .  A
O893       Cr901   2.009       .  S
O893        C894   1.265       .  A
C894        O895   1.258       .  A
C894       C1153   1.474       .  S
O895       Cr902   1.978       .  S
O896       Cr902   1.984       .  S
O896        C897   1.262       .  A
C897        O898   1.264       .  A
C897       C1177   1.470       .  S
O898       Cr903   2.000       .  S
O899       Cr903   2.022       .  S
O899        C900   1.268       .  A
C900       C1149   1.473       .  S
Cr901       O904   1.765       .  S
Cr902       O904   1.773       .  S
Cr903       O904   1.772       .  S
O905       Cr923   1.962       .  S
O905        C913   1.261       .  A
O906       Cr923   1.991       .  S
O906        C907   1.262       .  A
C907        O908   1.260       .  A
C907       C1134   1.469       .  S
O908       Cr924   1.985       .  S
O909       Cr924   2.029       .  S
O909        C910   1.270       .  A
C910        O911   1.259       .  A
C910       C1162   1.486       .  S
O911       Cr925   1.975       .  S
O912       Cr925   2.037       .  S
O912        C913   1.275       .  A
C913       C1137   1.474       .  S
O914       Cr923   2.003       .  S
O914        C922   1.260       .  A
O915       Cr923   1.972       .  S
O915        C916   1.262       .  A
C916        O917   1.264       .  A
C916       C1130   1.448       .  S
O917       Cr924   1.995       .  S
O918       Cr924   1.952       .  S
O918        C919   1.250       .  A
C919        O920   1.268       .  A
C919       C1202   1.473       .  S
O920       Cr925   2.028       .  S
O921       Cr925   1.992       .  S
O921        C922   1.258       .  A
C922       C1125   1.483       .  S
Cr923       O926   1.772       .  S
Cr924       O926   1.774       .  S
Cr925       O926   1.773       .  S
O927       Cr945   1.944       .  S
O927        C935   1.261       .  A
O928       Cr945   1.982       .  S
O928        C929   1.254       .  A
C929        O930   1.256       .  A
C929       C1121   1.467       .  S
O930       Cr946   1.988       .  S
O931       Cr946   2.026       .  S
O931        C932   1.273       .  A
C932        O933   1.262       .  A
C932       C1114   1.491       .  S
O933       Cr947   1.980       .  S
O934       Cr947   2.039       .  S
O934        C935   1.275       .  A
C935       C1150   1.467       .  S
O936       Cr945   1.992       .  S
O936        C944   1.255       .  A
O937       Cr945   1.951       .  S
O937       C1346   1.259       .  A
C938       O1345   1.261       .  A
C938       O1347   1.273       .  A
C938       C1129   1.463   1_556  S
O939       Cr946   2.005       .  S
O939       C1346   1.274       .  A
O940       Cr946   1.968       .  S
O940        C941   1.253       .  A
C941        O942   1.268       .  A
C941       C1109   1.482       .  S
O942       Cr947   2.022       .  S
O943       Cr947   2.004       .  S
O943        C944   1.260       .  A
C944       C1118   1.480       .  S
Cr945       O948   1.773       .  S
Cr946       O948   1.773       .  S
Cr947       O948   1.779       .  S
O949       Cr967   1.961       .  S
O949        C957   1.259       .  A
O950       Cr967   2.002       .  S
O950        C951   1.265       .  A
C951        O952   1.260       .  A
C951       C1213   1.471   1_455  S
O952       Cr968   1.984       .  S
O953       Cr968   2.036       .  S
O953        C954   1.272       .  A
C954        O955   1.258       .  A
C954       C1142   1.488       .  S
O955       Cr969   1.974       .  S
O956       Cr969   2.046       .  S
O956        C957   1.277       .  A
C957       C1106   1.480       .  S
O958       Cr967   2.006       .  S
O958        C966   1.263       .  A
O959       Cr967   1.971       .  S
O959        C960   1.258       .  A
C960        O961   1.269       .  A
C960       C1101   1.468       .  S
O961       Cr968   2.003       .  S
O962       Cr968   1.965       .  S
O962        C963   1.252       .  A
C963        O964   1.274       .  A
C963       C1098   1.487       .  S
O964       Cr969   2.047       .  S
O965       Cr969   1.988       .  S
O965        C966   1.258       .  A
C966       C1138   1.484       .  S
Cr967       O970   1.774       .  S
Cr968       O970   1.767       .  S
Cr969       O970   1.772       .  S
O971       Cr989   1.996       .  S
O971        C979   1.261       .  A
O972       Cr989   1.975       .  S
O972        C973   1.260       .  A
C973        O974   1.262       .  A
C973       C1093   1.465   1_565  S
O974       Cr990   2.004       .  S
O975       Cr990   1.987       .  S
O975        C976   1.266       .  A
C976        O977   1.264       .  A
C976       C1089   1.476       .  S
O977       Cr991   1.997       .  S
O978       Cr991   2.034       .  S
O978        C979   1.268       .  A
C979       C1217   1.496       .  S
O980       Cr989   1.966       .  S
O980        C988   1.260       .  A
O981       Cr989   1.998       .  S
O981        C982   1.263       .  A
C982        O983   1.258       .  A
C982       C1197   1.463       .  S
O983       Cr990   1.972       .  S
O984       Cr990   1.983       .  S
O984        C985   1.260       .  A
C985        O986   1.269       .  A
C985       C1097   1.482       .  S
O986       Cr991   2.018       .  S
O987       Cr991   2.024       .  S
O987        C988   1.268       .  A
C988       C1174   1.486       .  S
Cr989       O992   1.768       .  S
Cr990       O992   1.778       .  S
Cr991       O992   1.775       .  S
O993      Cr1419   2.015       .  S
O993       C1001   1.270       .  A
O994      Cr1011   1.976       .  S
O994        C995   1.255       .  A
C995        O996   1.257       .  A
C995       C1133   1.467       .  S
O996      Cr1012   2.000       .  S
O997      Cr1012   1.980   1_556  S
O997       C1406   1.265       .  A
C998       O1405   1.270       .  A
C998        O999   1.269       .  A
C998       C1182   1.479       .  S
O999      Cr1013   2.011       .  S
O1000     Cr1013   1.981       .  S
O1000      C1001   1.260       .  A
C1001      C1117   1.482       .  S
O1002     Cr1011   1.983       .  S
O1002      C1010   1.260       .  A
O1003     Cr1011   2.026       .  S
O1003      C1004   1.273       .  A
C1004      O1005   1.256       .  A
C1004      C1102   1.457       .  S
O1005     Cr1012   1.948       .  S
O1006     Cr1012   1.982       .  S
O1006      C1007   1.260       .  A
C1007      O1416   1.263       .  A
C1007      C1085   1.469       .  S
O1008     Cr1013   1.996       .  S
O1008      C1415   1.261       .  A
O1009     Cr1013   2.024       .  S
O1009      C1418   1.266       .  A
C1010      O1417   1.267   1_554  A
C1010      C1209   1.499   1_455  S
Cr1011     O1401   2.023   1_554  S
Cr1011     O1014   1.771       .  S
Cr1012     O1014   1.774       .  S
Cr1013     O1422   1.774       .  S
O1014     Cr1421   1.772   1_554  S
O1015     Cr1033   1.961       .  S
O1015      C1023   1.260       .  A
O1016     Cr1033   2.006       .  S
O1016      C1017   1.266       .  A
C1017      O1018   1.259       .  A
C1017      C1122   1.464       .  S
O1018     Cr1034   1.976       .  S
O1019     Cr1034   2.021       .  S
O1019      C1020   1.270       .  A
C1020      O1021   1.256       .  A
C1020      C1090   1.477       .  S
O1021     Cr1035   1.967       .  S
O1022     Cr1035   2.028       .  S
O1022      C1023   1.272       .  A
C1023      C1126   1.469       .  S
O1024     Cr1033   2.008       .  S
O1024      C1032   1.263       .  A
O1025     Cr1033   1.969       .  S
O1025      C1434   1.259   1_554  A
C1026      O1433   1.258       .  A
C1026      O1435   1.266       .  A
C1026      C1154   1.473       .  S
O1027     Cr1034   1.997       .  S
O1027      C1434   1.265   1_554  A
O1028     Cr1034   1.955       .  S
O1028      C1029   1.252       .  A
C1029      O1030   1.269       .  A
C1029      C1086   1.474       .  S
O1030     Cr1035   2.032       .  S
O1031     Cr1035   1.981       .  S
O1031      C1032   1.257       .  A
C1032      C1082   1.478   1_455  S
Cr1033     O1036   1.766       .  S
Cr1034     O1036   1.768       .  S
Cr1035     O1036   1.773       .  S
O1037     Cr1055   1.963       .  S
O1037      C1045   1.259       .  A
O1038     Cr1055   1.984       .  S
O1038      C1039   1.261       .  A
C1039      O1040   1.263       .  A
C1039      C1094   1.470       .  S
O1040     Cr1056   1.987       .  S
O1041     Cr1056   2.040       .  S
O1041      C1042   1.274       .  A
C1042      O1043   1.258       .  A
C1042      C1113   1.490       .  S
O1043     Cr1057   1.972       .  S
O1044     Cr1057   2.046       .  S
O1044      C1045   1.277       .  A
C1045      C1194   1.480       .  S
O1046     Cr1055   2.002       .  S
O1046      C1054   1.261       .  A
O1047     Cr1055   1.978       .  S
O1047      C1048   1.263       .  A
C1048      O1049   1.269       .  A
C1048      C1221   1.473       .  S
O1049     Cr1056   2.015       .  S
O1050     Cr1056   1.949       .  S
O1050      C1051   1.252       .  A
C1051      O1052   1.268       .  A
C1051      C1158   1.472       .  S
O1052     Cr1057   2.029       .  S
O1053     Cr1057   1.996       .  S
O1053      C1054   1.256       .  A
C1054      C1105   1.489       .  S
Cr1055     O1058   1.770       .  S
Cr1056     O1058   1.772       .  S
Cr1057     O1058   1.778       .  S
O1059     Cr1077   1.963       .  S
O1059      C1475   1.263       .  A
O1060     Cr1077   1.978       .  S
O1060      C1061   1.256       .  A
C1061      O1062   1.259       .  A
C1061      C1145   1.464       .  S
O1062     Cr1078   1.987       .  S
O1063     Cr1078   2.018       .  S
O1063      C1472   1.269       .  A
C1064      O1471   1.269   1_554  A
C1064      O1065   1.262       .  A
C1064      C1206   1.488       .  S
O1065     Cr1079   1.988       .  S
O1066     Cr1079   2.044       .  S
O1066      C1067   1.277       .  A
C1067      O1467   1.260   1_554  A
C1067      C1081   1.479       .  S
O1068     Cr1077   1.990       .  S
O1068      C1076   1.253       .  A
O1069     Cr1077   1.975       .  S
O1069      C1070   1.263       .  A
C1070      O1071   1.267       .  A
C1070      C1170   1.458       .  S
O1071     Cr1078   1.989       .  S
O1072     Cr1078   1.946       .  S
O1072      C1073   1.249       .  A
C1073      O1482   1.271       .  A
C1073      C1110   1.484       .  S
O1074     Cr1079   2.035   1_556  S
O1074      C1481   1.271       .  A
O1075     Cr1079   2.002   1_556  S
O1075      C1484   1.261       .  A
C1076      O1483   1.259       .  A
C1076      C1190   1.493       .  S
Cr1077     O1080   1.778       .  S
Cr1078     O1080   1.778       .  S
Cr1079     O1488   1.774   1_554  S
O1080     Cr1487   1.775       .  S
C1081      H1083   1.086       .  S
C1081      C2714   1.346       .  D
C1082      H1084   1.088       .  S
C1082      C2713   1.343       .  D
C1085      H1087   1.087       .  S
C1085      C1086   1.351       .  D
C1086      H1088   1.087       .  S
C1089      H1091   1.087       .  S
C1089      C1090   1.339       .  D
C1090      H1092   1.087       .  S
C1093      H1095   1.089       .  S
C1094      H1096   1.086       .  S
C1097      H1099   1.086       .  S
C1097      C1098   1.357       .  D
C1098      H1100   1.087       .  S
C1101      H1103   1.087       .  S
C1101      C1102   1.339       .  D
C1102      H1104   1.088       .  S
C1105      H1107   1.087       .  S
C1105      C2738   1.347       .  D
C1106      H1108   1.086   1_455  S
C1106      C2737   1.348   1_455  D
C1109      H1111   1.087       .  S
C1109      C1110   1.359       .  D
C1110      H1112   1.086       .  S
C1113      H1115   1.087       .  S
C1113      C1114   1.346       .  D
C1114      H1116   1.086       .  S
C1117      H1119   1.087       .  S
C1117      C1118   1.340       .  D
C1118      H1120   1.087       .  S
C1125      H1127   1.087       .  S
C1126      H1128   1.086       .  S
C1129      H1131   1.086       .  S
C1129      C1130   1.337       .  D
C1130      H1132   1.085       .  S
C1133      H1135   1.088       .  S
C1133      C1134   1.351       .  D
C1134      H1136   1.086       .  S
C1137      H1139   1.086       .  S
C1137      C1138   1.345       .  D
C1138      H1140   1.087       .  S
C1141      H1143   1.087       .  S
C1141      C1142   1.346       .  D
C1142      H1144   1.087       .  S
C1145      H1147   1.089       .  S
C1145      C2778   1.329       .  D
C1146      H1148   1.089       .  S
C1146      C2777   1.347       .  D
C1149      H1151   1.087   1_565  S
C1150      H1152   1.086       .  S
C1153      H1155   1.087       .  S
C1153      C1154   1.344       .  D
C1154      H1156   1.087       .  S
C1157      H1159   1.087       .  S
C1157      C1158   1.350       .  D
C1158      H1160   1.087       .  S
C1161      H1163   1.086       .  S
C1161      C1162   1.348       .  D
C1162      H1164   1.087       .  S
C1165      H1167   1.088   1_455  S
C1165      C2798   1.344       .  D
C1166      H1168   1.088       .  S
C1166      C2797   1.353       .  D
C1169      H1171   1.087       .  S
C1169      C1170   1.343       .  D
C1170      H1172   1.087       .  S
C1173      H1175   1.087       .  S
C1173      C1174   1.345       .  D
C1174      H1176   1.086       .  S
C1177      H1179   1.087       .  S
C1177      C1178   1.356       .  D
C1178      H1180   1.086       .  S
C1181      H1183   1.087       .  S
C1181      C1182   1.340       .  D
C1182      H1184   1.087       .  S
C1185      H1187   1.086       .  S
C1185      C1186   1.350       .  D
C1186      H1188   1.087       .  S
C1189      H1191   1.084       .  S
C1189      C1190   1.354       .  D
C1190      H1192   1.084       .  S
C1193      H1195   1.087       .  S
C1194      H1196   1.086       .  S
C1197      H1199   1.087       .  S
C1197      C1198   1.343       .  D
C1198      H1200   1.087       .  S
C1201      H1203   1.087       .  S
C1201      C1202   1.353       .  D
C1202      H1204   1.086       .  S
C1205      H1207   1.087       .  S
C1205      C1206   1.348       .  D
C1206      H1208   1.087       .  S
C1209      H1211   1.086       .  S
C1209      C2842   1.350       .  D
C1210      H1212   1.087       .  S
C1210      C2841   1.349       .  D
C1213      H1215   1.086       .  S
C1213      C2846   1.351   1_655  D
C1214      H1216   1.087       .  S
C1214      C2845   1.348       .  D
C1217      H1219   1.088   1_565  S
C1218      H1220   1.086       .  S
C1221      H1223   1.086       .  S
C1221      C1222   1.346       .  D
C1222      H1224   1.087       .  S
O1225     Cr1243   1.993       .  S
O1225      C1233   1.260       .  A
O1226     Cr1243   1.964       .  S
O1226      C1227   1.252       .  A
C1227      O1228   1.262       .  A
C1227      C1622   1.464       .  S
O1228     Cr1244   2.016       .  S
O1229     Cr1244   1.978       .  S
O1229      C1230   1.266       .  A
C1230      O1231   1.274       .  A
C1230      C1613   1.487       .  S
O1231     Cr1245   2.031       .  S
O1232     Cr1245   2.020       .  S
O1232      C1233   1.266       .  A
C1233      C1618   1.487       .  S
O1234     Cr1243   1.946       .  S
O1234      C1242   1.253       .  A
O1235     Cr1243   2.005       .  S
O1235      C1236   1.268       .  A
C1236      O1237   1.256       .  A
C1236      C1630   1.458       .  S
O1237     Cr1244   1.958       .  S
O1238     Cr1244   1.985       .  S
O1238      C1239   1.261       .  A
C1239      O1240   1.268       .  A
C1239      C1609   1.476       .  S
O1240     Cr1245   2.014       .  S
O1241     Cr1245   2.059       .  S
O1241      C1242   1.275       .  A
C1242      C1626   1.484       .  S
Cr1243     O1246   1.761       .  S
Cr1244     O1246   1.777       .  S
Cr1245     O1246   1.769       .  S
O1247     Cr1265   1.969       .  S
O1247      C1255   1.262       .  A
O1248     Cr1265   1.979       .  S
O1248      C1249   1.262       .  A
C1249      O1250   1.265       .  A
C1249      C1593   1.470       .  S
O1250     Cr1266   1.993       .  S
O1251     Cr1266   1.992       .  S
O1251      C1252   1.263       .  A
C1252      O1253   1.256       .  A
C1252      C1589   1.476       .  S
O1253     Cr1267   1.981       .  S
O1254     Cr1267   2.039       .  S
O1254      C1255   1.276       .  A
C1255      C1597   1.485       .  S
O1256     Cr1265   2.002       .  S
O1256      C1264   1.259       .  A
O1257     Cr1265   1.985       .  S
O1257      C1258   1.267       .  A
C1258      O1259   1.254       .  A
C1258      C1606   1.451       .  S
O1259     Cr1266   1.968       .  S
O1260     Cr1266   1.958       .  S
O1260      C1261   1.254       .  A
C1261      O1262   1.271       .  A
C1261      C1586   1.478       .  S
O1262     Cr1267   2.033       .  S
O1263     Cr1267   1.996       .  S
O1263      C1264   1.257       .  A
C1264      C1601   1.488       .  S
Cr1265     O1268   1.770       .  S
Cr1266     O1268   1.778       .  S
Cr1267     O1268   1.776       .  S
O1269     Cr1287   1.986       .  S
O1269      C1277   1.258       .  A
O1270     Cr1287   1.980       .  S
O1270      C1271   1.262       .  A
C1271      O1272   1.261       .  A
C1271      C1594   1.464       .  S
O1272     Cr1288   2.003       .  S
O1273     Cr1288   1.973       .  S
O1273      C1274   1.261       .  A
C1274      O1275   1.266       .  A
C1274      C1569   1.470       .  S
O1275     Cr1289   2.005       .  S
O1276     Cr1289   2.021       .  S
O1276      C1277   1.267       .  A
C1277      C1581   1.480       .  S
O1278     Cr1287   1.972       .  S
O1278      C1286   1.262       .  A
O1279     Cr1287   1.987       .  S
O1279      C1280   1.262       .  A
C1280      O1281   1.256       .  A
C1280      C1577   1.456       .  S
O1281     Cr1288   1.965       .  S
O1282     Cr1288   1.981       .  S
O1282      C1283   1.260       .  A
C1283      O1284   1.266       .  A
C1283      C1565   1.474       .  S
O1284     Cr1289   2.011       .  S
O1285     Cr1289   2.023       .  S
O1285      C1286   1.268       .  A
C1286      C1574   1.485       .  S
Cr1287     O1290   1.761       .  S
Cr1288     O1290   1.774       .  S
Cr1289     O1290   1.771       .  S
O1291     Cr1309   1.994       .  S
O1291      C1299   1.260       .  A
O1292     Cr1309   1.971       .  S
O1292      C1293   1.256       .  A
C1293      O1294   1.261       .  A
C1293      C1554   1.464   1_455  S
O1294     Cr1310   2.006       .  S
O1295     Cr1310   1.991       .  S
O1295      C1296   1.268       .  A
C1296      O1297   1.266       .  A
C1296      C1549   1.480       .  S
O1297     Cr1311   2.004       .  S
O1298     Cr1311   2.010       .  S
O1298      C1299   1.267       .  A
C1299      C1573   1.483       .  S
O1300     Cr1309   1.967       .  S
O1300      C1308   1.260       .  A
O1301     Cr1309   1.997       .  S
O1301      C1302   1.265       .  A
C1302      O1303   1.258       .  A
C1302      C1561   1.460       .  S
O1303     Cr1310   1.969       .  S
O1304     Cr1310   1.979       .  S
O1304      C1305   1.260       .  A
C1305      O1306   1.268       .  A
C1305      C1585   1.472       .  S
O1306     Cr1311   2.012       .  S
O1307     Cr1311   2.021       .  S
O1307      C1308   1.266       .  A
C1308      C1557   1.482       .  S
Cr1309     O1312   1.767       .  S
Cr1310     O1312   1.778       .  S
Cr1311     O1312   1.769       .  S
O1313     Cr1331   1.965       .  S
O1313      C1321   1.261       .  A
O1314     Cr1331   1.993       .  S
O1314      C1315   1.262       .  A
C1315      O1316   1.262       .  A
C1315      C1542   1.477       .  S
O1316     Cr1332   1.995       .  S
O1317     Cr1332   1.998       .  S
O1317      C1318   1.266       .  A
C1318      O1319   1.259       .  A
C1318      C1570   1.474       .  S
O1319     Cr1333   1.977       .  S
O1320     Cr1333   2.042       .  S
O1320      C1321   1.276       .  A
C1321      C1545   1.478       .  S
O1322     Cr1331   2.009       .  S
O1322      C1330   1.261       .  A
O1323     Cr1331   1.965       .  S
O1323      C1324   1.262       .  A
C1324      O1325   1.260       .  A
C1324      C1538   1.441       .  S
O1325     Cr1332   1.976       .  S
O1326     Cr1332   1.964       .  S
O1326      C1327   1.253       .  A
C1327      O1328   1.270       .  A
C1327      C1610   1.484       .  S
O1328     Cr1333   2.036       .  S
O1329     Cr1333   1.993       .  S
O1329      C1330   1.258       .  A
C1330      C1533   1.486       .  S
Cr1331     O1334   1.773       .  S
Cr1332     O1334   1.773       .  S
Cr1333     O1334   1.775       .  S
O1335     Cr1353   1.960       .  S
O1335      C1343   1.261       .  A
O1336     Cr1353   1.980       .  S
O1336      C1337   1.255       .  A
C1337      O1338   1.259       .  A
C1337      C1529   1.469       .  S
O1338     Cr1354   1.990       .  S
O1339     Cr1354   2.031       .  S
O1339      C1340   1.273       .  A
C1340      O1341   1.266       .  A
C1340      C1522   1.497       .  S
O1341     Cr1355   1.991       .  S
O1342     Cr1355   2.052       .  S
O1342      C1343   1.278       .  A
C1343      C1558   1.476       .  S
O1344     Cr1353   1.989       .  S
O1344      C1352   1.255       .  A
O1345     Cr1353   1.966       .  S
C1346      C1537   1.453       .  S
O1347     Cr1354   2.009       .  S
O1348     Cr1354   1.966       .  S
O1348      C1349   1.253       .  A
C1349      O1350   1.269       .  A
C1349      C1517   1.486       .  S
O1350     Cr1355   2.031       .  S
O1351     Cr1355   2.031       .  S
O1351      C1352   1.266       .  A
C1352      C1526   1.492       .  S
Cr1353     O1356   1.774       .  S
Cr1354     O1356   1.774       .  S
Cr1355     O1356   1.778       .  S
O1357     Cr1375   1.962       .  S
O1357      C1365   1.259       .  A
O1358     Cr1375   2.012       .  S
O1358      C1359   1.267       .  A
C1359      O1360   1.258       .  A
C1359      C1621   1.470       .  S
O1360     Cr1376   1.978       .  S
O1361     Cr1376   2.030       .  S
O1361      C1362   1.273       .  A
C1362      O1363   1.258       .  A
C1362      C1550   1.482       .  S
O1363     Cr1377   1.970       .  S
O1364     Cr1377   2.047       .  S
O1364      C1365   1.277       .  A
C1365      C1514   1.482       .  S
O1366     Cr1375   2.011       .  S
O1366      C1374   1.265       .  A
O1367     Cr1375   1.963       .  S
O1367      C1368   1.255       .  A
C1368      O1369   1.269       .  A
C1368      C1509   1.463       .  S
O1369     Cr1376   2.008       .  S
O1370     Cr1376   1.963       .  S
O1370      C1371   1.252       .  A
C1371      O1372   1.273       .  A
C1371      C1506   1.484       .  S
O1372     Cr1377   2.047       .  S
O1373     Cr1377   1.988       .  S
O1373      C1374   1.259       .  A
C1374      C1546   1.486       .  S
Cr1375     O1378   1.768       .  S
Cr1376     O1378   1.767       .  S
Cr1377     O1378   1.771       .  S
O1379     Cr1397   1.978       .  S
O1379      C1387   1.252       .  A
O1380     Cr1397   1.985       .  S
O1380      C1381   1.266       .  A
C1381      O1382   1.261       .  A
C1381      C1501   1.467   1_565  S
O1382     Cr1398   1.984       .  S
O1383     Cr1398   1.993       .  S
O1383      C1384   1.264       .  A
C1384      O1385   1.260       .  A
C1384      C1497   1.478       .  S
O1385     Cr1399   1.991       .  S
O1386     Cr1399   2.033       .  S
O1386      C1387   1.266       .  A
C1387      C1625   1.483       .  S
O1388     Cr1397   1.977       .  S
O1388      C1396   1.264       .  A
O1389     Cr1397   1.969       .  S
O1389      C1390   1.251       .  A
C1390      O1391   1.264       .  A
C1390      C1605   1.454       .  S
O1391     Cr1398   1.979       .  S
O1392     Cr1398   1.982       .  S
O1392      C1393   1.262       .  A
C1393      O1394   1.270       .  A
C1393      C1505   1.482       .  S
O1394     Cr1399   2.014       .  S
O1395     Cr1399   2.025       .  S
O1395      C1396   1.269       .  A
C1396      C1582   1.488       .  S
Cr1397     O1400   1.776       .  S
Cr1398     O1400   1.776       .  S
Cr1399     O1400   1.776       .  S
O1401      C1409   1.271       .  A
O1402     Cr1419   1.976       .  S
O1402      C1403   1.256       .  A
C1403      O1404   1.260       .  A
C1403      C1541   1.475       .  S
O1404     Cr1420   2.017       .  S
O1405     Cr1420   1.989       .  S
C1406      O1407   1.268       .  A
C1406      C1590   1.469       .  S
O1407     Cr1421   2.005       .  S
O1408     Cr1421   1.988       .  S
O1408      C1409   1.261       .  A
C1409      C1525   1.495       .  S
O1410     Cr1419   1.976       .  S
O1410      C1418   1.258       .  A
O1411     Cr1419   2.018       .  S
O1411      C1412   1.272       .  A
C1412      O1413   1.256       .  A
C1412      C1510   1.457       .  S
O1413     Cr1420   1.951       .  S
O1414     Cr1420   1.981       .  S
O1414      C1415   1.260       .  A
C1415      C1493   1.465       .  S
O1416     Cr1421   2.001   1_554  S
O1417     Cr1421   2.024       .  S
C1418      C1617   1.496   1_455  S
Cr1419     O1422   1.770       .  S
Cr1420     O1422   1.776       .  S
O1423     Cr1441   1.961       .  S
O1423      C1431   1.257       .  A
O1424     Cr1441   2.001       .  S
O1424      C1425   1.267       .  A
C1425      O1426   1.258       .  A
C1425      C1530   1.459   1_565  S
O1426     Cr1442   1.971       .  S
O1427     Cr1442   2.026       .  S
O1427      C1428   1.272       .  A
C1428      O1429   1.257       .  A
C1428      C1498   1.480       .  S
O1429     Cr1443   1.971       .  S
O1430     Cr1443   2.034       .  S
O1430      C1431   1.272       .  A
C1431      C1534   1.474       .  S
O1432     Cr1441   2.005       .  S
O1432      C1440   1.265       .  A
O1433     Cr1441   1.975       .  S
C1434      C1562   1.460       .  S
O1435     Cr1442   2.013       .  S
O1436     Cr1442   1.954       .  S
O1436      C1437   1.252       .  A
C1437      O1438   1.269       .  A
C1437      C1494   1.470       .  S
O1438     Cr1443   2.032       .  S
O1439     Cr1443   1.979       .  S
O1439      C1440   1.257       .  A
C1440      C1490   1.479       .  S
Cr1441     O1444   1.763       .  S
Cr1442     O1444   1.767       .  S
Cr1443     O1444   1.775       .  S
O1445     Cr1463   1.970       .  S
O1445      C1453   1.265       .  A
O1446     Cr1463   1.985       .  S
O1446      C1447   1.257       .  A
C1447      O1448   1.256       .  A
C1447      C1502   1.468       .  S
O1448     Cr1464   1.983       .  S
O1449     Cr1464   2.023       .  S
O1449      C1450   1.272       .  A
C1450      O1451   1.267       .  A
C1450      C1521   1.498       .  S
O1451     Cr1465   1.995       .  S
O1452     Cr1465   2.056       .  S
O1452      C1453   1.281       .  A
C1453      C1602   1.481       .  S
O1454     Cr1463   1.986       .  S
O1454      C1462   1.253       .  A
O1455     Cr1463   1.962       .  S
O1455      C1456   1.259       .  A
C1456      O1457   1.272       .  A
C1456      C1629   1.458       .  S
O1457     Cr1464   2.007       .  S
O1458     Cr1464   1.953       .  S
O1458      C1459   1.250       .  A
C1459      O1460   1.269       .  A
C1459      C1566   1.481       .  S
O1460     Cr1465   2.033       .  S
O1461     Cr1465   2.022       .  S
O1461      C1462   1.260       .  A
C1462      C1513   1.483       .  S
Cr1463     O1466   1.774       .  S
Cr1464     O1466   1.773       .  S
Cr1465     O1466   1.781       .  S
O1467     Cr1485   1.963       .  S
O1468     Cr1485   1.994       .  S
O1468      C1469   1.262       .  A
C1469      O1470   1.259       .  A
C1469      C1553   1.469       .  S
O1470     Cr1486   1.985       .  S
O1471     Cr1486   2.013       .  S
C1472      O1473   1.262       .  A
C1472      C1614   1.486       .  S
O1473     Cr1487   1.982       .  S
O1474     Cr1487   2.060       .  S
O1474      C1475   1.283       .  A
C1475      C1489   1.488       .  S
O1476     Cr1485   2.004       .  S
O1476      C1484   1.261       .  A
O1477     Cr1485   1.964       .  S
O1477      C1478   1.258       .  A
C1478      O1479   1.266       .  A
C1478      C1578   1.456       .  S
O1479     Cr1486   1.994       .  S
O1480     Cr1486   1.968       .  S
O1480      C1481   1.254       .  A
C1481      C1518   1.485       .  S
O1482     Cr1487   2.040       .  S
O1483     Cr1487   2.015       .  S
C1484      C1598   1.493       .  S
Cr1485     O1488   1.775       .  S
Cr1486     O1488   1.774       .  S
C1489      H1491   1.087       .  S
C1489      C3122   1.349       .  D
C1490      H1492   1.087   1_455  S
C1490      C3121   1.342   1_455  D
C1493      H1495   1.086       .  S
C1493      C1494   1.349       .  D
C1494      H1496   1.087       .  S
C1497      H1499   1.087       .  S
C1497      C1498   1.341       .  D
C1498      H1500   1.087       .  S
C1501      H1503   1.087       .  S
C1502      H1504   1.086       .  S
C1505      H1507   1.086       .  S
C1505      C1506   1.357       .  D
C1506      H1508   1.087       .  S
C1509      H1511   1.087       .  S
C1509      C1510   1.335       .  D
C1510      H1512   1.087       .  S
C1513      H1515   1.089       .  S
C1513      C3146   1.344       .  D
C1514      H1516   1.086   1_455  S
C1514      C3145   1.348   1_455  D
C1517      H1519   1.087       .  S
C1517      C1518   1.356       .  D
C1518      H1520   1.086       .  S
C1521      H1523   1.086       .  S
C1521      C1522   1.352       .  D
C1522      H1524   1.086       .  S
C1525      H1527   1.086       .  S
C1525      C1526   1.343       .  D
C1526      H1528   1.087       .  S
C1533      H1535   1.088       .  S
C1534      H1536   1.086   1_565  S
C1537      H1539   1.088       .  S
C1537      C1538   1.329       .  D
C1538      H1540   1.087       .  S
C1541      H1543   1.088       .  S
C1541      C1542   1.354       .  D
C1542      H1544   1.086       .  S
C1545      H1547   1.086       .  S
C1545      C1546   1.347       .  D
C1546      H1548   1.087       .  S
C1549      H1551   1.087       .  S
C1549      C1550   1.341       .  D
C1550      H1552   1.087       .  S
C1553      H1555   1.086       .  S
C1553      C3186   1.351       .  D
C1554      H1556   1.088       .  S
C1554      C3185   1.350       .  D
C1557      H1559   1.086   1_565  S
C1558      H1560   1.086       .  S
C1561      H1563   1.087       .  S
C1561      C1562   1.341       .  D
C1562      H1564   1.087       .  S
C1565      H1567   1.087       .  S
C1565      C1566   1.355       .  D
C1566      H1568   1.086       .  S
C1569      H1571   1.087       .  S
C1569      C1570   1.343       .  D
C1570      H1572   1.087       .  S
C1573      H1575   1.087   1_455  S
C1573      C3206   1.345   1_455  D
C1574      H1576   1.086       .  S
C1574      C3205   1.343       .  D
C1577      H1579   1.087       .  S
C1577      C1578   1.341       .  D
C1578      H1580   1.087       .  S
C1581      H1583   1.088       .  S
C1581      C1582   1.343       .  D
C1582      H1584   1.086       .  S
C1585      H1587   1.087       .  S
C1585      C1586   1.354       .  D
C1586      H1588   1.087       .  S
C1589      H1591   1.087       .  S
C1589      C1590   1.342       .  D
C1590      H1592   1.087       .  S
C1593      H1595   1.086       .  S
C1593      C1594   1.353       .  D
C1594      H1596   1.089       .  S
C1597      H1599   1.086       .  S
C1597      C1598   1.351       .  D
C1598      H1600   1.087       .  S
C1601      H1603   1.087   1_565  S
C1602      H1604   1.087       .  S
C1605      H1607   1.088       .  S
C1605      C1606   1.323       .  D
C1606      H1608   1.088       .  S
C1609      H1611   1.087       .  S
C1609      C1610   1.355       .  D
C1610      H1612   1.087       .  S
C1613      H1615   1.086       .  S
C1613      C1614   1.349       .  D
C1614      H1616   1.086       .  S
C1617      H1619   1.086       .  S
C1617      C3250   1.350       .  D
C1618      H1620   1.087       .  S
C1618      C3249   1.351       .  D
C1621      H1623   1.087   1_455  S
C1621      C3254   1.349       .  D
C1622      H1624   1.088       .  S
C1622      C3253   1.348       .  D
C1625      H1627   1.088       .  S
C1626      H1628   1.088       .  S
C1629      H1631   1.087       .  S
C1629      C1630   1.337       .  D
C1630      H1632   1.087       .  S
O1633     Cr1651   1.947       .  S
O1633      C1641   1.258       .  A
O1634     Cr1651   1.988       .  S
O1634      C1635   1.258       .  A
C1635      O1636   1.256       .  A
C1635      C2030   1.466   1_655  S
O1636     Cr1652   1.982       .  S
O1637     Cr1652   2.022       .  S
O1637      C1638   1.271       .  A
C1638      O1639   1.267       .  A
C1638      C2021   1.499       .  S
O1639     Cr1653   1.999       .  S
O1640     Cr1653   2.038       .  S
O1640      C1641   1.275       .  A
C1641      C2026   1.462       .  S
O1642     Cr1651   1.998       .  S
O1642      C1650   1.258       .  A
O1643     Cr1651   1.952       .  S
O1643      C1644   1.257       .  A
C1644      O1645   1.270       .  A
C1644      C2038   1.452       .  S
O1645     Cr1652   2.002       .  S
O1646     Cr1652   1.961       .  S
O1646      C1647   1.252       .  A
C1647      O1648   1.267       .  A
C1647      C2017   1.477       .  S
O1648     Cr1653   2.019       .  S
O1649     Cr1653   2.024       .  S
O1649      C1650   1.265       .  A
C1650      C2034   1.495       .  S
Cr1651     O1654   1.774       .  S
Cr1652     O1654   1.773       .  S
Cr1653     O1654   1.778       .  S
O1655     Cr1673   1.969       .  S
O1655      C1663   1.263       .  A
O1656     Cr1673   1.977       .  S
O1656      C1657   1.260       .  A
C1657      O1658   1.262       .  A
C1657      C2001   1.467       .  S
O1658     Cr1674   1.990       .  S
O1659     Cr1674   1.995       .  S
O1659      C1660   1.261       .  A
C1660      O1661   1.258       .  A
C1660      C1997   1.481       .  S
O1661     Cr1675   1.986       .  S
O1662     Cr1675   2.043       .  S
O1662      C1663   1.279       .  A
C1663      C2005   1.487       .  S
O1664     Cr1673   2.006       .  S
O1664      C1672   1.257       .  A
O1665     Cr1673   1.988       .  S
O1665      C1666   1.269       .  A
C1666      O1667   1.257       .  A
C1666      C2014   1.453       .  S
O1667     Cr1674   1.971       .  S
O1668     Cr1674   1.955       .  S
O1668      C1669   1.254       .  A
C1669      O1670   1.272       .  A
C1669      C1994   1.478       .  S
O1670     Cr1675   2.032       .  S
O1671     Cr1675   2.004       .  S
O1671      C1672   1.257       .  A
C1672      C2009   1.495       .  S
Cr1673     O1676   1.778       .  S
Cr1674     O1676   1.782       .  S
Cr1675     O1676   1.777       .  S
O1677     Cr1695   1.988       .  S
O1677      C1685   1.260       .  A
O1678     Cr1695   1.978       .  S
O1678      C1679   1.261       .  A
C1679      O1680   1.259       .  A
C1679      C2002   1.462       .  S
O1680     Cr1696   1.998       .  S
O1681     Cr1696   1.977       .  S
O1681      C1682   1.264       .  A
C1682      O1683   1.265       .  A
C1682      C1977   1.468       .  S
O1683     Cr1697   1.999       .  S
O1684     Cr1697   2.018       .  S
O1684      C1685   1.267       .  A
C1685      C1989   1.481       .  S
O1686     Cr1695   1.970       .  S
O1686      C1694   1.261       .  A
O1687     Cr1695   1.987       .  S
O1687      C1688   1.263       .  A
C1688      O1689   1.257       .  A
C1688      C1985   1.454       .  S
O1689     Cr1696   1.965       .  S
O1690     Cr1696   1.975       .  S
O1690      C1691   1.259       .  A
C1691      O1692   1.267       .  A
C1691      C1973   1.473       .  S
O1692     Cr1697   2.014       .  S
O1693     Cr1697   2.019       .  S
O1693      C1694   1.266       .  A
C1694      C1982   1.482       .  S
Cr1695     O1698   1.761       .  S
Cr1696     O1698   1.775       .  S
Cr1697     O1698   1.771       .  S
O1699     Cr1717   1.988       .  S
O1699      C1707   1.259       .  A
O1700     Cr1717   1.971       .  S
O1700      C1701   1.257       .  A
C1701      O1702   1.263       .  A
C1701      C1962   1.463       .  S
O1702     Cr1718   2.010       .  S
O1703     Cr1718   1.982       .  S
O1703      C1704   1.265       .  A
C1704      O1705   1.266       .  A
C1704      C1957   1.474       .  S
O1705     Cr1719   2.004       .  S
O1706     Cr1719   2.012       .  S
O1706      C1707   1.266       .  A
C1707      C1981   1.477       .  S
O1708     Cr1717   1.960       .  S
O1708      C1716   1.259       .  A
O1709     Cr1717   1.999       .  S
O1709      C1710   1.265       .  A
C1710      O1711   1.255       .  A
C1710      C1969   1.461       .  S
O1711     Cr1718   1.966       .  S
O1712     Cr1718   1.980       .  S
O1712      C1713   1.260       .  A
C1713      O1714   1.267       .  A
C1713      C1993   1.472       .  S
O1714     Cr1719   2.010       .  S
O1715     Cr1719   2.025       .  S
O1715      C1716   1.267       .  A
C1716      C1965   1.479       .  S
Cr1717     O1720   1.762       .  S
Cr1718     O1720   1.771       .  S
Cr1719     O1720   1.770       .  S
O1721     Cr1739   1.964       .  S
O1721      C1729   1.261       .  A
O1722     Cr1739   2.007       .  S
O1722      C1723   1.266       .  A
C1723      O1724   1.256       .  A
C1723      C1950   1.467       .  S
O1724     Cr1740   1.977       .  S
O1725     Cr1740   2.007       .  S
O1725      C1726   1.268       .  A
C1726      O1727   1.257       .  A
C1726      C1978   1.472       .  S
O1727     Cr1741   1.970       .  S
O1728     Cr1741   2.031       .  S
O1728      C1729   1.274       .  A
C1729      C1953   1.472       .  S
O1730     Cr1739   2.005       .  S
O1730      C1738   1.263       .  A
O1731     Cr1739   1.964       .  S
O1731      C1732   1.258       .  A
C1732      O1733   1.266       .  A
C1732      C1946   1.457       .  S
O1733     Cr1740   1.997       .  S
O1734     Cr1740   1.955       .  S
O1734      C1735   1.252       .  A
C1735      O1736   1.270       .  A
C1735      C2018   1.477       .  S
O1736     Cr1741   2.035       .  S
O1737     Cr1741   1.994       .  S
O1737      C1738   1.260       .  A
C1738      C1941   1.486       .  S
Cr1739     O1742   1.765       .  S
Cr1740     O1742   1.766       .  S
Cr1741     O1742   1.771       .  S
O1743     Cr1761   1.996       .  S
O1743      C1751   1.263       .  A
O1744     Cr1761   1.970       .  S
O1744      C1745   1.250       .  A
C1745      O1746   1.256       .  A
C1745      C1937   1.464   1_545  S
O1746     Cr1762   2.005       .  S
O1747     Cr1762   1.966       .  S
O1747      C1748   1.266       .  A
C1748      O1749   1.277       .  A
C1748      C1930   1.478       .  S
O1749     Cr1763   2.031       .  S
O1750     Cr1763   2.015       .  S
O1750      C1751   1.266       .  A
C1751      C1966   1.490       .  S
O1752     Cr1761   1.945       .  S
O1752      C1760   1.253       .  A
O1753     Cr1761   2.016       .  S
O1753      C2162   1.272       .  A
C1754      O2161   1.265   1_554  A
C1754      O2163   1.257   1_554  A
C1754      C1945   1.458       .  S
O1755     Cr1762   1.953       .  S
O1755      C2162   1.259       .  A
O1756     Cr1762   1.982       .  S
O1756      C1757   1.256       .  A
C1757      O1758   1.262       .  A
C1757      C1925   1.477       .  S
O1758     Cr1763   2.016       .  S
O1759     Cr1763   2.040       .  S
O1759      C1760   1.272       .  A
C1760      C1934   1.481       .  S
Cr1761     O1764   1.766       .  S
Cr1762     O1764   1.784       .  S
Cr1763     O1764   1.773       .  S
O1765     Cr1783   1.963       .  S
O1765      C1773   1.260       .  A
O1766     Cr1783   1.998       .  S
O1766      C1767   1.263       .  A
C1767      O1768   1.256       .  A
C1767      C2029   1.460       .  S
O1768     Cr1784   1.973       .  S
O1769     Cr1784   2.013       .  S
O1769      C1770   1.269       .  A
C1770      O1771   1.257       .  A
C1770      C1958   1.478       .  S
O1771     Cr1785   1.973       .  S
O1772     Cr1785   2.050       .  S
O1772      C1773   1.279       .  A
C1773      C1922   1.480       .  S
O1774     Cr1783   1.997       .  S
O1774      C1782   1.260       .  A
O1775     Cr1783   1.972       .  S
O1775      C1776   1.260       .  A
C1776      O1777   1.267       .  A
C1776      C1917   1.461       .  S
O1777     Cr1784   1.993       .  S
O1778     Cr1784   1.952       .  S
O1778      C1779   1.250       .  A
C1779      O1780   1.275       .  A
C1779      C1914   1.485       .  S
O1780     Cr1785   2.053       .  S
O1781     Cr1785   1.996       .  S
O1781      C1782   1.259       .  A
C1782      C1954   1.483       .  S
Cr1783     O1786   1.769       .  S
Cr1784     O1786   1.763       .  S
Cr1785     O1786   1.771       .  S
O1787     Cr1805   1.978       .  S
O1787      C1795   1.252       .  A
O1788     Cr1805   1.983       .  S
O1788      C1789   1.266       .  A
C1789      O1790   1.262       .  A
C1789      C1909   1.465       .  S
O1790     Cr1806   1.984       .  S
O1791     Cr1806   1.999       .  S
O1791      C1792   1.265       .  A
C1792      O1793   1.261       .  A
C1792      C1905   1.482       .  S
O1793     Cr1807   1.992       .  S
O1794     Cr1807   2.036       .  S
O1794      C1795   1.265       .  A
C1795      C2033   1.484       .  S
O1796     Cr1805   1.973       .  S
O1796      C1804   1.263       .  A
O1797     Cr1805   1.972       .  S
O1797      C1798   1.251       .  A
C1798      O1799   1.264       .  A
C1798      C2013   1.458       .  S
O1799     Cr1806   1.981       .  S
O1800     Cr1806   1.981       .  S
O1800      C1801   1.262       .  A
C1801      O1802   1.270       .  A
C1801      C1913   1.483       .  S
O1802     Cr1807   2.015       .  S
O1803     Cr1807   2.029       .  S
O1803      C1804   1.270       .  A
C1804      C1990   1.489       .  S
Cr1805     O1808   1.778       .  S
Cr1806     O1808   1.777       .  S
Cr1807     O1808   1.776       .  S
O1809     Cr2235   1.997       .  S
O1809      C1817   1.265       .  A
O1810     Cr1827   1.967       .  S
O1810      C1811   1.251       .  A
C1811      O1812   1.261       .  A
C1811      C1949   1.466       .  S
O1812     Cr1828   2.016       .  S
O1813     Cr1828   1.965       .  S
O1813      C2222   1.263   1_554  A
C1814      O2221   1.266       .  A
C1814      O1815   1.276       .  A
C1814      C1998   1.478       .  S
O1815     Cr1829   2.028       .  S
O1816     Cr1829   1.997       .  S
O1816      C1817   1.260       .  A
C1817      C1933   1.491       .  S
O1818     Cr1827   1.947       .  S
O1818      C1826   1.254       .  A
O1819     Cr1827   2.012       .  S
O1819      C1820   1.269       .  A
C1820      O1821   1.258       .  A
C1820      C1918   1.454       .  S
O1821     Cr1828   1.953       .  S
O1822     Cr1828   1.993       .  S
O1822      C1823   1.262       .  A
C1823      O2232   1.263       .  A
C1823      C1901   1.472       .  S
O1824     Cr1829   2.001       .  S
O1824      C2231   1.261       .  A
O1825     Cr1829   2.050       .  S
O1825      C2234   1.274       .  A
C1826      O2233   1.274       .  A
C1826      C2025   1.480       .  S
Cr1827     O2217   1.994       .  S
Cr1827     O1830   1.764       .  S
Cr1828     O1830   1.775       .  S
Cr1829     O2238   1.772       .  S
O1830     Cr2237   1.774   1_554  S
O1831     Cr1849   1.966       .  S
O1831      C1839   1.259       .  A
O1832     Cr1849   1.995       .  S
O1832      C1833   1.262       .  A
C1833      O1834   1.258       .  A
C1833      C1938   1.470       .  S
O1834     Cr1850   1.981       .  S
O1835     Cr1850   2.030       .  S
O1835      C1836   1.276       .  A
C1836      O1837   1.264       .  A
C1836      C1906   1.487       .  S
O1837     Cr1851   1.979       .  S
O1838     Cr1851   2.035       .  S
O1838      C1839   1.270       .  A
C1839      C1942   1.473       .  S
O1840     Cr1849   2.005       .  S
O1840      C1848   1.265       .  A
O1841     Cr1849   1.953       .  S
O1841      C2250   1.256   1_554  A
C1842      O2249   1.254       .  A
C1842      O2251   1.267       .  A
C1842      C1970   1.460       .  S
O1843     Cr1850   2.005       .  S
O1843      C2250   1.269   1_554  A
O1844     Cr1850   1.968       .  S
O1844      C1845   1.251       .  A
C1845      O1846   1.265       .  A
C1845      C1902   1.479       .  S
O1846     Cr1851   2.030       .  S
O1847     Cr1851   2.005       .  S
O1847      C1848   1.265       .  A
C1848      C1898   1.483       .  S
Cr1849     O1852   1.766       .  S
Cr1850     O1852   1.769       .  S
Cr1851     O1852   1.783       .  S
O1853     Cr1871   1.960       .  S
O1853      C1861   1.261       .  A
O1854     Cr1871   1.995       .  S
O1854      C1855   1.263       .  A
C1855      O1856   1.261       .  A
C1855      C1910   1.473   1_545  S
O1856     Cr1872   1.990       .  S
O1857     Cr1872   2.007       .  S
O1857      C1858   1.265       .  A
C1858      O1859   1.259       .  A
C1858      C1929   1.477       .  S
O1859     Cr1873   1.977       .  S
O1860     Cr1873   2.041       .  S
O1860      C1861   1.277       .  A
C1861      C2010   1.477       .  S
O1862     Cr1871   2.007       .  S
O1862      C1870   1.260       .  A
O1863     Cr1871   1.965       .  S
O1863      C1864   1.261       .  A
C1864      O1865   1.260       .  A
C1864      C2037   1.443       .  S
O1865     Cr1872   1.982       .  S
O1866     Cr1872   1.954       .  S
O1866      C1867   1.251       .  A
C1867      O1868   1.270       .  A
C1867      C1974   1.477       .  S
O1868     Cr1873   2.033       .  S
O1869     Cr1873   1.991       .  S
O1869      C1870   1.257       .  A
C1870      C1921   1.485       .  S
Cr1871     O1874   1.773       .  S
Cr1872     O1874   1.777       .  S
Cr1873     O1874   1.775       .  S
O1875     Cr1893   1.966       .  S
O1875      C2291   1.261       .  A
O1876     Cr1893   1.995       .  S
O1876      C1877   1.263       .  A
C1877      O1878   1.259       .  A
C1877      C1961   1.470       .  S
O1878     Cr1894   1.984       .  S
O1879     Cr1894   2.011       .  S
O1879      C2288   1.267       .  A
C1880      O2287   1.273   1_554  A
C1880      O1881   1.265       .  A
C1880      C2022   1.497       .  S
O1881     Cr1895   1.987       .  S
O1882     Cr1895   2.045       .  S
O1882      C1883   1.276       .  A
C1883      O2283   1.258       .  A
C1883      C1897   1.473       .  S
O1884     Cr1893   2.003       .  S
O1884      C1892   1.260       .  A
O1885     Cr1893   1.968       .  S
O1885      C1886   1.259       .  A
C1886      O1887   1.265       .  A
C1886      C1986   1.454       .  S
O1887     Cr1894   1.989       .  S
O1888     Cr1894   1.957       .  S
O1888      C1889   1.252       .  A
C1889      O2298   1.273       .  A
C1889      C1926   1.485       .  S
O1890     Cr1895   2.028       .  S
O1890      C2297   1.268   1_554  A
O1891     Cr1895   2.006   1_556  S
O1891      C2300   1.261       .  A
C1892      O2299   1.263       .  A
C1892      C2006   1.497       .  S
Cr1893     O1896   1.771       .  S
Cr1894     O1896   1.773       .  S
Cr1895     O2304   1.776   1_554  S
O1896     Cr2303   1.772       .  S
C1897      H1899   1.086       .  S
C1898      H1900   1.087       .  S
C1901      H1903   1.086       .  S
C1901      C1902   1.349       .  D
C1902      H1904   1.087       .  S
C1905      H1907   1.087       .  S
C1905      C1906   1.343       .  D
C1906      H1908   1.087       .  S
C1909      H1911   1.087       .  S
C1909      C2726   1.355       .  D
C1910      H1912   1.086       .  S
C1910      C2725   1.351   1_565  D
C1913      H1915   1.086       .  S
C1913      C1914   1.359       .  D
C1914      H1916   1.086       .  S
C1917      H1919   1.087       .  S
C1917      C1918   1.340       .  D
C1918      H1920   1.087       .  S
C1921      H1923   1.087   1_655  S
C1922      H1924   1.090       .  S
C1925      H1927   1.086       .  S
C1925      C1926   1.356       .  D
C1926      H1928   1.087       .  S
C1929      H1931   1.087       .  S
C1929      C1930   1.347       .  D
C1930      H1932   1.086       .  S
C1933      H1935   1.086       .  S
C1933      C1934   1.344       .  D
C1934      H1936   1.088       .  S
C1937      H2755   1.088       .  S
C1937      C3162   1.349   1_565  D
C1938      H2756   1.088       .  S
C1938      C3161   1.352   1_554  D
H1939      C2753   1.087       .  S
H1940      C2754   1.086   1_545  S
C1941      H1943   1.087   1_545  S
C1941      C2758   1.348   1_545  D
C1942      H1944   1.086       .  S
C1942      C2757   1.341       .  D
C1945      H1947   1.086       .  S
C1945      C1946   1.340       .  D
C1946      H1948   1.087       .  S
C1949      H1951   1.088       .  S
C1949      C1950   1.348       .  D
C1950      H1952   1.086       .  S
C1953      H1955   1.086       .  S
C1953      C1954   1.347       .  D
C1954      H1956   1.087       .  S
C1957      H1959   1.087       .  S
C1957      C1958   1.341       .  D
C1958      H1960   1.087       .  S
C1961      H1963   1.086   1_655  S
C1962      H1964   1.089       .  S
C1965      H1967   1.086       .  S
C1965      C2782   1.342       .  D
C1966      H1968   1.087   1_545  S
C1966      C2781   1.352   1_545  D
C1969      H1971   1.087       .  S
C1969      C1970   1.337       .  D
C1970      H1972   1.088       .  S
C1973      H1975   1.086       .  S
C1973      C1974   1.355       .  D
C1974      H1976   1.086       .  S
C1977      H1979   1.087       .  S
C1977      C1978   1.339       .  D
C1978      H1980   1.087       .  S
C1981      H1983   1.088       .  S
C1982      H1984   1.086   1_655  S
C1985      H1987   1.087       .  S
C1985      C1986   1.341       .  D
C1986      H1988   1.087       .  S
C1989      H1991   1.088       .  S
C1989      C1990   1.345       .  D
C1990      H1992   1.086       .  S
C1993      H1995   1.087       .  S
C1993      C1994   1.354       .  D
C1994      H1996   1.086       .  S
C1997      H1999   1.087       .  S
C1997      C1998   1.348       .  D
C1998      H2000   1.087       .  S
C2001      H2003   1.086       .  S
C2001      C2002   1.353       .  D
C2002      H2004   1.088       .  S
C2005      H2007   1.086       .  S
C2005      C2006   1.354       .  D
C2006      H2008   1.087       .  S
C2009      H2011   1.087       .  S
C2009      C2826   1.351       .  D
C2010      H2012   1.086   1_545  S
C2010      C2825   1.346       .  D
C2013      H2015   1.087       .  S
C2013      C2014   1.325       .  D
C2014      H2016   1.088       .  S
C2017      H2019   1.087       .  S
C2017      C2018   1.354       .  D
C2018      H2020   1.087       .  S
C2021      H2023   1.086       .  S
C2021      C2022   1.353       .  D
C2022      H2024   1.087       .  S
C2025      H2027   1.087       .  S
C2026      H2028   1.087       .  S
C2029      H2031   1.086       .  S
C2030      H2032   1.087       .  S
C2033      H2035   1.089       .  S
C2033      C2850   1.345       .  D
C2034      H2036   1.087       .  S
C2034      C2849   1.347   1_545  D
C2037      H2039   1.088       .  S
C2037      C2038   1.331       .  D
C2038      H2040   1.088       .  S
O2041     Cr2059   1.998       .  S
O2041      C2049   1.266       .  A
O2042     Cr2059   1.969       .  S
O2042      C2043   1.251       .  A
C2043      O2044   1.261       .  A
C2043      C2438   1.477   1_655  S
O2044     Cr2060   2.025       .  S
O2045     Cr2060   1.977       .  S
O2045      C2046   1.268       .  A
C2046      O2047   1.275       .  A
C2046      C2429   1.481       .  S
O2047     Cr2061   2.028       .  S
O2048     Cr2061   1.991       .  S
O2048      C2049   1.260       .  A
C2049      C2434   1.488       .  S
O2050     Cr2059   1.949       .  S
O2050      C2058   1.253       .  A
O2051     Cr2059   2.020       .  S
O2051      C2052   1.271       .  A
C2052      O2053   1.257       .  A
C2052      C2446   1.455       .  S
O2053     Cr2060   1.950       .  S
O2054     Cr2060   1.986       .  S
O2054      C2055   1.259       .  A
C2055      O2056   1.261       .  A
C2055      C2425   1.465       .  S
O2056     Cr2061   1.997       .  S
O2057     Cr2061   2.048       .  S
O2057      C2058   1.273       .  A
C2058      C2442   1.486       .  S
Cr2059     O2062   1.766       .  S
Cr2060     O2062   1.779       .  S
Cr2061     O2062   1.775       .  S
O2063     Cr2081   1.980       .  S
O2063      C2071   1.263       .  A
O2064     Cr2081   2.009       .  S
O2064      C2065   1.270       .  A
C2065      O2066   1.260       .  A
C2065      C2409   1.464       .  S
O2066     Cr2082   1.971       .  S
O2067     Cr2082   2.000       .  S
O2067      C2068   1.262       .  A
C2068      O2069   1.256       .  A
C2068      C2405   1.473       .  S
O2069     Cr2083   1.978       .  S
O2070     Cr2083   2.025       .  S
O2070      C2071   1.271       .  A
C2071      C2413   1.484       .  S
O2072     Cr2081   2.017       .  S
O2072      C2080   1.266       .  A
O2073     Cr2081   1.998       .  S
O2073      C2074   1.265       .  A
C2074      O2075   1.254       .  A
C2074      C2422   1.464       .  S
O2075     Cr2082   1.976       .  S
O2076     Cr2082   1.946       .  S
O2076      C2077   1.252       .  A
C2077      O2078   1.271       .  A
C2077      C2402   1.468       .  S
O2078     Cr2083   2.031       .  S
O2079     Cr2083   1.985       .  S
O2079      C2080   1.258       .  A
C2080      C2417   1.491       .  S
Cr2081     O2084   1.769       .  S
Cr2082     O2084   1.773       .  S
Cr2083     O2084   1.776       .  S
O2085     Cr2103   1.956       .  S
O2085      C2093   1.264       .  A
O2086     Cr2103   1.979       .  S
O2086      C2087   1.256       .  A
C2087      O2088   1.256       .  A
C2087      C2410   1.465       .  S
O2088     Cr2104   1.985       .  S
O2089     Cr2104   1.988       .  S
O2089      C2090   1.264       .  A
C2090      O2091   1.261       .  A
C2090      C2385   1.483       .  S
O2091     Cr2105   1.990       .  S
O2092     Cr2105   2.044       .  S
O2092      C2093   1.279       .  A
C2093      C2397   1.469       .  S
O2094     Cr2103   1.981       .  S
O2094      C2102   1.250       .  A
O2095     Cr2103   1.977       .  S
O2095      C2096   1.266       .  A
C2096      O2097   1.264       .  A
C2096      C2393   1.451       .  S
O2097     Cr2104   1.989       .  S
O2098     Cr2104   1.939       .  S
O2098      C2099   1.250       .  A
C2099      O2100   1.270       .  A
C2099      C2381   1.475       .  S
O2100     Cr2105   2.028       .  S
O2101     Cr2105   2.014       .  S
O2101      C2102   1.259       .  A
C2102      C2390   1.476       .  S
Cr2103     O2106   1.771       .  S
Cr2104     O2106   1.775       .  S
Cr2105     O2106   1.786       .  S
O2107     Cr2125   1.955       .  S
O2107      C2115   1.260       .  A
O2108     Cr2125   1.993       .  S
O2108      C2109   1.264       .  A
C2109      O2110   1.260       .  A
C2109      C2370   1.465       .  S
O2110     Cr2126   1.981       .  S
O2111     Cr2126   2.007       .  S
O2111      C2112   1.266       .  A
C2112      O2113   1.261       .  A
C2112      C2365   1.487       .  S
O2113     Cr2127   1.988       .  S
O2114     Cr2127   2.040       .  S
O2114      C2115   1.275       .  A
C2115      C2389   1.475       .  S
O2116     Cr2125   2.000       .  S
O2116      C2124   1.260       .  A
O2117     Cr2125   1.971       .  S
O2117      C2118   1.261       .  A
C2118      O2119   1.260       .  A
C2118      C2377   1.455       .  S
O2119     Cr2126   1.990       .  S
O2120     Cr2126   1.943       .  S
O2120      C2121   1.251       .  A
C2121      O2122   1.269       .  A
C2121      C2401   1.468       .  S
O2122     Cr2127   2.026       .  S
O2123     Cr2127   1.997       .  S
O2123      C2124   1.258       .  A
C2124      C2373   1.489       .  S
Cr2125     O2128   1.771       .  S
Cr2126     O2128   1.775       .  S
Cr2127     O2128   1.779       .  S
O2129     Cr2147   1.968       .  S
O2129      C2137   1.264       .  A
O2130     Cr2147   2.007       .  S
O2130      C2131   1.265       .  A
C2131      O2132   1.257       .  A
C2131      C2358   1.469       .  S
O2132     Cr2148   1.979       .  S
O2133     Cr2148   2.025       .  S
O2133      C2134   1.270       .  A
C2134      O2135   1.257       .  A
C2134      C2386   1.474       .  S
O2135     Cr2149   1.960       .  S
O2136     Cr2149   2.019       .  S
O2136      C2137   1.271       .  A
C2137      C2361   1.475       .  S
O2138     Cr2147   2.010       .  S
O2138      C2146   1.264       .  A
O2139     Cr2147   1.968       .  S
O2139      C2140   1.259       .  A
C2140      O2141   1.269       .  A
C2140      C2354   1.461       .  S
O2141     Cr2148   1.999       .  S
O2142     Cr2148   1.958       .  S
O2142      C2143   1.252       .  A
C2143      O2144   1.266       .  A
C2143      C2426   1.472       .  S
O2144     Cr2149   2.021       .  S
O2145     Cr2149   1.990       .  S
O2145      C2146   1.259       .  A
C2146      C2349   1.486       .  S
Cr2147     O2150   1.772       .  S
Cr2148     O2150   1.765       .  S
Cr2149     O2150   1.771       .  S
O2151     Cr2169   1.987       .  S
O2151      C2159   1.258       .  A
O2152     Cr2169   1.967       .  S
O2152      C2153   1.253       .  A
C2153      O2154   1.264       .  A
C2153      C2345   1.465   1_545  S
O2154     Cr2170   2.020       .  S
O2155     Cr2170   1.975       .  S
O2155      C2156   1.266       .  A
C2156      O2157   1.277       .  A
C2156      C2338   1.492       .  S
O2157     Cr2171   2.042       .  S
O2158     Cr2171   2.001       .  S
O2158      C2159   1.262       .  A
C2159      C2374   1.471       .  S
O2160     Cr2169   1.943       .  S
O2160      C2168   1.253       .  A
O2161     Cr2169   1.995       .  S
C2162      C2353   1.456       .  S
O2163     Cr2170   1.966       .  S
O2164     Cr2170   1.988       .  S
O2164      C2165   1.261       .  A
C2165      O2166   1.263       .  A
C2165      C2333   1.468       .  S
O2166     Cr2171   1.999       .  S
O2167     Cr2171   2.061       .  S
O2167      C2168   1.277       .  A
C2168      C2342   1.484       .  S
Cr2169     O2172   1.758       .  S
Cr2170     O2172   1.773       .  S
Cr2171     O2172   1.768       .  S
O2173     Cr2191   1.958       .  S
O2173      C2181   1.264       .  A
O2174     Cr2191   1.985       .  S
O2174      C2175   1.256       .  A
C2175      O2176   1.259       .  A
C2175      C2437   1.477       .  S
O2176     Cr2192   1.997       .  S
O2177     Cr2192   2.017       .  S
O2177      C2178   1.271       .  A
C2178      O2179   1.264       .  A
C2178      C2366   1.484       .  S
O2179     Cr2193   1.981       .  S
O2180     Cr2193   2.045       .  S
O2180      C2181   1.279       .  A
C2181      C2330   1.468       .  S
O2182     Cr2191   1.977       .  S
O2182      C2190   1.248       .  A
O2183     Cr2191   1.966       .  S
O2183      C2184   1.261       .  A
C2184      O2185   1.271       .  A
C2184      C2325   1.459       .  S
O2185     Cr2192   1.994       .  S
O2186     Cr2192   1.974       .  S
O2186      C2187   1.254       .  A
C2187      O2188   1.267       .  A
C2187      C2322   1.484       .  S
O2188     Cr2193   2.025       .  S
O2189     Cr2193   2.022       .  S
O2189      C2190   1.263       .  A
C2190      C2362   1.475       .  S
Cr2191     O2194   1.776       .  S
Cr2192     O2194   1.771       .  S
Cr2193     O2194   1.779       .  S
O2195     Cr2213   1.985       .  S
O2195      C2203   1.258       .  A
O2196     Cr2213   1.977       .  S
O2196      C2197   1.260       .  A
C2197      O2198   1.260       .  A
C2197      C2317   1.467       .  S
O2198     Cr2214   1.991       .  S
O2199     Cr2214   1.998       .  S
O2199      C2200   1.268       .  A
C2200      O2201   1.263       .  A
C2200      C2313   1.478       .  S
O2201     Cr2215   1.993       .  S
O2202     Cr2215   2.018       .  S
O2202      C2203   1.261       .  A
C2203      C2441   1.497       .  S
O2204     Cr2213   1.951       .  S
O2204      C2212   1.258       .  A
O2205     Cr2213   1.990       .  S
O2205      C2206   1.259       .  A
C2206      O2207   1.268       .  A
C2206      C2421   1.469       .  S
O2207     Cr2214   1.988       .  S
O2208     Cr2214   1.988       .  S
O2208      C2209   1.262       .  A
C2209      O2210   1.268       .  A
C2209      C2321   1.481       .  S
O2210     Cr2215   2.009       .  S
O2211     Cr2215   2.030       .  S
O2211      C2212   1.270       .  A
C2212      C2398   1.487       .  S
Cr2213     O2216   1.776       .  S
Cr2214     O2216   1.771       .  S
Cr2215     O2216   1.780       .  S
O2217      C2225   1.263   1_554  A
O2218     Cr2235   1.969       .  S
O2218      C2219   1.252       .  A
C2219      O2220   1.260       .  A
C2219      C2357   1.469       .  S
O2220     Cr2236   2.015       .  S
O2221     Cr2236   1.971       .  S
C2222      O2223   1.273       .  A
C2222      C2406   1.472       .  S
O2223     Cr2237   2.021       .  S
O2224     Cr2237   2.001       .  S
O2224      C2225   1.260       .  A
C2225      C2341   1.494       .  S
O2226     Cr2235   1.948       .  S
O2226      C2234   1.252       .  A
O2227     Cr2235   2.012       .  S
O2227      C2228   1.270       .  A
C2228      O2229   1.256       .  A
C2228      C2326   1.449       .  S
O2229     Cr2236   1.943       .  S
O2230     Cr2236   1.989       .  S
O2230      C2231   1.260       .  A
C2231      C2309   1.473       .  S
O2232     Cr2237   1.999   1_554  S
O2233     Cr2237   2.044   1_554  S
C2234      C2433   1.486       .  S
Cr2235     O2238   1.767       .  S
Cr2236     O2238   1.780       .  S
O2239     Cr2257   1.966       .  S
O2239      C2247   1.260       .  A
O2240     Cr2257   2.021       .  S
O2240      C2241   1.270       .  A
C2241      O2242   1.258       .  A
C2241      C2346   1.469       .  S
O2242     Cr2258   1.971       .  S
O2243     Cr2258   2.030       .  S
O2243      C2244   1.273       .  A
C2244      O2245   1.257       .  A
C2244      C2314   1.480       .  S
O2245     Cr2259   1.969       .  S
O2246     Cr2259   2.038       .  S
O2246      C2247   1.274       .  A
C2247      C2350   1.479       .  S
O2248     Cr2257   2.017       .  S
O2248      C2256   1.268       .  A
O2249     Cr2257   1.959       .  S
C2250      C2378   1.459       .  S
O2251     Cr2258   2.008       .  S
O2252     Cr2258   1.956       .  S
O2252      C2253   1.251       .  A
C2253      O2254   1.271       .  A
C2253      C2310   1.479       .  S
O2254     Cr2259   2.045       .  S
O2255     Cr2259   1.988       .  S
O2255      C2256   1.260       .  A
C2256      C2306   1.490       .  S
Cr2257     O2260   1.765       .  S
Cr2258     O2260   1.768       .  S
Cr2259     O2260   1.773       .  S
O2261     Cr2279   1.953       .  S
O2261      C2269   1.259       .  A
O2262     Cr2279   1.997       .  S
O2262      C2263   1.264       .  A
C2263      O2264   1.260       .  A
C2263      C2318   1.467       .  S
O2264     Cr2280   1.980       .  S
O2265     Cr2280   2.035       .  S
O2265      C2266   1.271       .  A
C2266      O2267   1.259       .  A
C2266      C2337   1.486       .  S
O2267     Cr2281   1.974       .  S
O2268     Cr2281   2.037       .  S
O2268      C2269   1.276       .  A
C2269      C2418   1.467       .  S
O2270     Cr2279   1.997       .  S
O2270      C2278   1.259       .  A
O2271     Cr2279   1.970       .  S
O2271      C2272   1.258       .  A
C2272      O2273   1.269       .  A
C2272      C2445   1.463       .  S
O2273     Cr2280   2.001       .  S
O2274     Cr2280   1.945       .  S
O2274      C2275   1.249       .  A
C2275      O2276   1.271       .  A
C2275      C2382   1.474       .  S
O2276     Cr2281   2.032       .  S
O2277     Cr2281   1.989       .  S
O2277      C2278   1.257       .  A
C2278      C2329   1.479       .  S
Cr2279     O2282   1.769       .  S
Cr2280     O2282   1.769       .  S
Cr2281     O2282   1.771       .  S
O2283     Cr2301   1.954   1_554  S
O2284     Cr2301   1.991       .  S
O2284      C2285   1.262       .  A
C2285      O2286   1.260       .  A
C2285      C2369   1.466       .  S
O2286     Cr2302   1.984       .  S
O2287     Cr2302   2.039       .  S
C2288      O2289   1.261       .  A
C2288      C2430   1.483       .  S
O2289     Cr2303   1.983       .  S
O2290     Cr2303   2.052       .  S
O2290      C2291   1.279       .  A
C2291      C2305   1.487       .  S
O2292     Cr2301   1.997       .  S
O2292      C2300   1.260       .  A
O2293     Cr2301   1.959       .  S
O2293      C2294   1.255       .  A
C2294      O2295   1.270       .  A
C2294      C2394   1.462       .  S
O2295     Cr2302   2.013       .  S
O2296     Cr2302   1.961       .  S
O2296      C2297   1.253       .  A
C2297      C2334   1.476       .  S
O2298     Cr2303   2.046       .  S
O2299     Cr2303   2.011       .  S
C2300      C2414   1.492       .  S
Cr2301     O2304   1.775       .  S
Cr2302     O2304   1.771       .  S
C2305      H2307   1.086       .  S
C2306      H2308   1.087       .  S
C2309      H2311   1.086       .  S
C2309      C2310   1.352       .  D
C2310      H2312   1.087       .  S
C2313      H2315   1.087       .  S
C2313      C2314   1.339       .  D
C2314      H2316   1.087       .  S
C2317      H2319   1.088       .  S
C2317      C3134   1.354       .  D
C2318      H2320   1.086   1_545  S
C2318      C3133   1.353       .  D
C2321      H2323   1.086       .  S
C2321      C2322   1.353       .  D
C2322      H2324   1.087       .  S
C2325      H2327   1.086       .  S
C2325      C2326   1.336       .  D
C2326      H2328   1.087       .  S
C2329      H2331   1.087   1_655  S
C2330      H2332   1.086       .  S
C2333      H2335   1.087       .  S
C2333      C2334   1.349       .  D
C2334      H2336   1.088       .  S
C2337      H2339   1.087       .  S
C2337      C2338   1.350       .  D
C2338      H2340   1.086       .  S
C2341      H2343   1.085       .  S
C2341      C2342   1.346       .  D
C2342      H2344   1.088       .  S
C2345      H3163   1.088       .  S
C2345      C2754   1.350   1_556  D
C2346      H3164   1.088       .  S
C2346      C2753   1.352       .  D
H2347      C3161   1.087       .  S
H2348      C3162   1.087       .  S
C2349      H2351   1.088   1_545  S
C2349      C3166   1.348   1_545  D
C2350      H2352   1.086       .  S
C2350      C3165   1.347       .  D
C2353      H2355   1.088       .  S
C2353      C2354   1.338       .  D
C2354      H2356   1.087       .  S
C2357      H2359   1.089       .  S
C2357      C2358   1.349       .  D
C2358      H2360   1.087       .  S
C2361      H2363   1.092       .  S
C2361      C2362   1.333       .  D
C2362      H2364   1.095       .  S
C2365      H2367   1.086       .  S
C2365      C2366   1.349       .  D
C2366      H2368   1.087       .  S
C2369      H2371   1.087   1_655  S
C2370      H2372   1.087       .  S
C2373      H2375   1.087       .  S
C2373      C3190   1.348       .  D
C2374      H2376   1.088   1_545  S
C2374      C3189   1.345       .  D
C2377      H2379   1.087       .  S
C2377      C2378   1.332       .  D
C2378      H2380   1.088       .  S
C2381      H2383   1.087       .  S
C2381      C2382   1.358       .  D
C2382      H2384   1.087       .  S
C2385      H2387   1.086       .  S
C2385      C2386   1.344       .  D
C2386      H2388   1.087       .  S
C2389      H2391   1.087       .  S
C2390      H2392   1.088       .  S
C2393      H2395   1.087       .  S
C2393      C2394   1.333       .  D
C2394      H2396   1.088       .  S
C2397      H2399   1.087       .  S
C2397      C2398   1.347       .  D
C2398      H2400   1.086       .  S
C2401      H2403   1.087       .  S
C2401      C2402   1.353       .  D
C2402      H2404   1.087       .  S
C2405      H2407   1.087       .  S
C2405      C2406   1.345       .  D
C2406      H2408   1.087       .  S
C2409      H2411   1.087       .  S
C2409      C2410   1.350       .  D
C2410      H2412   1.087       .  S
C2413      H2415   1.086       .  S
C2413      C2414   1.353       .  D
C2414      H2416   1.086       .  S
C2417      H2419   1.087       .  S
C2417      C3234   1.346       .  D
C2418      H2420   1.087   1_545  S
C2418      C3233   1.341   1_545  D
C2421      H2423   1.087       .  S
C2421      C2422   1.330       .  D
C2422      H2424   1.088       .  S
C2425      H2427   1.086       .  S
C2425      C2426   1.348       .  D
C2426      H2428   1.087       .  S
C2429      H2431   1.086       .  S
C2429      C2430   1.347       .  D
C2430      H2432   1.087       .  S
C2433      H2435   1.087       .  S
C2434      H2436   1.086       .  S
C2437      H2439   1.086       .  S
C2438      H2440   1.088       .  S
C2441      H2443   1.085       .  S
C2441      C3258   1.350       .  D
C2442      H2444   1.087       .  S
C2442      C3257   1.348   1_545  D
C2445      H2447   1.087       .  S
C2445      C2446   1.338       .  D
C2446      H2448   1.087       .  S
O2449     Cr2467   1.993       .  S
O2449      C2457   1.260       .  A
O2450     Cr2467   1.974       .  S
O2450      C2451   1.259       .  A
C2451      O2452   1.264       .  A
C2451      C2846   1.468   1_655  S
O2452     Cr2468   2.011       .  S
O2453     Cr2468   1.989       .  S
O2453      C2454   1.266       .  A
C2454      O2455   1.266       .  A
C2454      C2837   1.478       .  S
O2455     Cr2469   2.003       .  S
O2456     Cr2469   2.030       .  S
O2456      C2457   1.268       .  A
C2457      C2842   1.492       .  S
O2458     Cr2467   1.972       .  S
O2458      C2466   1.261       .  A
O2459     Cr2467   1.998       .  S
O2459      C2460   1.262       .  A
C2460      O2461   1.255       .  A
C2460      C2854   1.455       .  S
O2461     Cr2468   1.964       .  S
O2462     Cr2468   1.979       .  S
O2462      C2463   1.260       .  A
C2463      O2464   1.269       .  A
C2463      C2833   1.478       .  S
O2464     Cr2469   2.015       .  S
O2465     Cr2469   2.031       .  S
O2465      C2466   1.269       .  A
C2466      C2850   1.491       .  S
Cr2467     O2470   1.769       .  S
Cr2468     O2470   1.777       .  S
Cr2469     O2470   1.772       .  S
O2471     Cr2489   1.961       .  S
O2471      C2479   1.259       .  A
O2472     Cr2489   1.994       .  S
O2472      C2473   1.265       .  A
C2473      O2474   1.259       .  A
C2473      C2817   1.465       .  S
O2474     Cr2490   1.977       .  S
O2475     Cr2490   2.030       .  S
O2475      C2476   1.271       .  A
C2476      O2477   1.258       .  A
C2476      C2813   1.488       .  S
O2477     Cr2491   1.979       .  S
O2478     Cr2491   2.031       .  S
O2478      C2479   1.273       .  A
C2479      C2821   1.472       .  S
O2480     Cr2489   2.003       .  S
O2480      C2488   1.262       .  A
O2481     Cr2489   1.976       .  S
O2481      C2482   1.260       .  A
C2482      O2483   1.268       .  A
C2482      C2830   1.469       .  S
O2483     Cr2490   2.004       .  S
O2484     Cr2490   1.948       .  S
O2484      C2485   1.251       .  A
C2485      O2486   1.270       .  A
C2485      C2810   1.474       .  S
O2486     Cr2491   2.030       .  S
O2487     Cr2491   1.989       .  S
O2487      C2488   1.258       .  A
C2488      C2825   1.486   1_565  S
Cr2489     O2492   1.771       .  S
Cr2490     O2492   1.771       .  S
Cr2491     O2492   1.774       .  S
O2493     Cr2511   1.998       .  S
O2493      C2501   1.262       .  A
O2494     Cr2511   1.971       .  S
O2494      C2495   1.258       .  A
C2495      O2496   1.261       .  A
C2495      C2818   1.460       .  S
O2496     Cr2512   2.000       .  S
O2497     Cr2512   1.975       .  S
O2497      C2498   1.262       .  A
C2498      O2499   1.266       .  A
C2498      C2793   1.473       .  S
O2499     Cr2513   2.009       .  S
O2500     Cr2513   2.015       .  S
O2500      C2501   1.266       .  A
C2501      C2805   1.485       .  S
O2502     Cr2511   1.967       .  S
O2502      C2510   1.260       .  A
O2503     Cr2511   2.006       .  S
O2503      C2504   1.266       .  A
C2504      O2505   1.255       .  A
C2504      C2801   1.461       .  S
O2505     Cr2512   1.960       .  S
O2506     Cr2512   1.982       .  S
O2506      C2507   1.262       .  A
C2507      O2508   1.266       .  A
C2507      C2789   1.471       .  S
O2508     Cr2513   2.004       .  S
O2509     Cr2513   2.026       .  S
O2509      C2510   1.268       .  A
C2510      C2798   1.485   1_655  S
Cr2511     O2514   1.761       .  S
Cr2512     O2514   1.771       .  S
Cr2513     O2514   1.772       .  S
O2515     Cr2533   1.952       .  S
O2515      C2523   1.260       .  A
O2516     Cr2533   2.004       .  S
O2516      C2517   1.270       .  A
C2517      O2518   1.258       .  A
C2517      C2778   1.469       .  S
O2518     Cr2534   1.969       .  S
O2519     Cr2534   2.013       .  S
O2519      C2520   1.267       .  A
C2520      O2521   1.266       .  A
C2520      C2773   1.487       .  S
O2521     Cr2535   1.998       .  S
O2522     Cr2535   2.055       .  S
O2522      C2523   1.278       .  A
C2523      C2797   1.500       .  S
O2524     Cr2533   2.001       .  S
O2524      C2532   1.262       .  A
O2525     Cr2533   1.972       .  S
O2525      C2526   1.254       .  A
C2526      O2527   1.262       .  A
C2526      C2785   1.454       .  S
O2527     Cr2534   1.996       .  S
O2528     Cr2534   1.950       .  S
O2528      C2529   1.251       .  A
C2529      O2530   1.272       .  A
C2529      C2809   1.474       .  S
O2530     Cr2535   2.036       .  S
O2531     Cr2535   2.006       .  S
O2531      C2532   1.261       .  A
C2532      C2781   1.496       .  S
Cr2533     O2536   1.765       .  S
Cr2534     O2536   1.770       .  S
Cr2535     O2536   1.776       .  S
O2537     Cr2555   1.959       .  S
O2537      C2545   1.258       .  A
O2538     Cr2555   2.009       .  S
O2538      C2539   1.267       .  A
C2539      O2540   1.258       .  A
C2539      C2766   1.465       .  S
O2540     Cr2556   1.972       .  S
O2541     Cr2556   2.015       .  S
O2541      C2542   1.269       .  A
C2542      O2543   1.257       .  A
C2542      C2794   1.473       .  S
O2543     Cr2557   1.968       .  S
O2544     Cr2557   2.046       .  S
O2544      C2545   1.275       .  A
C2545      C2769   1.478       .  S
O2546     Cr2555   2.015       .  S
O2546      C2554   1.266       .  A
O2547     Cr2555   1.960       .  S
O2547      C2548   1.255       .  A
C2548      O2549   1.264       .  A
C2548      C2762   1.451       .  S
O2549     Cr2556   1.989       .  S
O2550     Cr2556   1.959       .  S
O2550      C2551   1.251       .  A
C2551      O2552   1.274       .  A
C2551      C2834   1.482       .  S
O2552     Cr2557   2.046       .  S
O2553     Cr2557   1.972       .  S
O2553      C2554   1.256       .  A
C2554      C2757   1.477       .  S
Cr2555     O2558   1.769       .  S
Cr2556     O2558   1.765       .  S
Cr2557     O2558   1.770       .  S
O2559     Cr2577   1.949       .  S
O2559      C2567   1.262       .  A
O2560     Cr2577   1.966       .  S
O2560      C2561   1.252       .  A
C2561      O2562   1.260       .  A
C2561      C2753   1.468       .  S
O2562     Cr2578   2.002       .  S
O2563     Cr2578   1.995       .  S
O2563      C2564   1.265       .  A
C2564      O2565   1.264       .  A
C2564      C2746   1.491       .  S
O2565     Cr2579   1.997       .  S
O2566     Cr2579   2.045       .  S
O2566      C2567   1.279       .  A
C2567      C2782   1.466       .  S
O2568     Cr2577   1.980       .  S
O2568      C2576   1.249       .  A
O2569     Cr2577   1.967       .  S
O2569      C2978   1.266       .  A
C2570      O2977   1.262   1_554  A
C2570      O2979   1.264   1_554  A
C2570      C2761   1.444       .  S
O2571     Cr2578   1.992       .  S
O2571      C2978   1.265       .  A
O2572     Cr2578   1.955       .  S
O2572      C2573   1.254       .  A
C2573      O2574   1.268       .  A
C2573      C2741   1.477       .  S
O2574     Cr2579   2.021       .  S
O2575     Cr2579   2.021       .  S
O2575      C2576   1.260       .  A
C2576      C2750   1.484       .  S
Cr2577     O2580   1.774       .  S
Cr2578     O2580   1.777       .  S
Cr2579     O2580   1.784       .  S
O2581     Cr2599   1.989       .  S
O2581      C2589   1.258       .  A
O2582     Cr2599   1.982       .  S
O2582      C2583   1.261       .  A
C2583      O2584   1.258       .  A
C2583      C2845   1.459       .  S
O2584     Cr2600   1.980       .  S
O2585     Cr2600   1.981       .  S
O2585      C2586   1.262       .  A
C2586      O2587   1.273       .  A
C2586      C2774   1.490       .  S
O2587     Cr2601   2.030       .  S
O2588     Cr2601   2.014       .  S
O2588      C2589   1.264       .  A
C2589      C2738   1.481       .  S
O2590     Cr2599   1.952       .  S
O2590      C2598   1.256       .  A
O2591     Cr2599   1.990       .  S
O2591      C2592   1.260       .  A
C2592      O2593   1.263       .  A
C2592      C2733   1.459       .  S
O2593     Cr2600   1.975       .  S
O2594     Cr2600   1.979       .  S
O2594      C2595   1.258       .  A
C2595      O2596   1.262       .  A
C2595      C2730   1.473       .  S
O2596     Cr2601   2.003       .  S
O2597     Cr2601   2.042       .  S
O2597      C2598   1.274       .  A
C2598      C2770   1.489       .  S
Cr2599     O2602   1.775       .  S
Cr2600     O2602   1.775       .  S
Cr2601     O2602   1.775       .  S
O2603     Cr2621   2.020       .  S
O2603      C2611   1.269       .  A
O2604     Cr2621   1.971       .  S
O2604      C2605   1.254       .  A
C2605      O2606   1.260       .  A
C2605      C2725   1.469   1_565  S
O2606     Cr2622   2.012       .  S
O2607     Cr2622   1.985       .  S
O2607      C2608   1.266       .  A
C2608      O2609   1.266       .  A
C2608      C2721   1.471       .  S
O2609     Cr2623   2.001       .  S
O2610     Cr2623   1.995       .  S
O2610      C2611   1.262       .  A
C2611      C2849   1.497       .  S
O2612     Cr2621   1.975       .  S
O2612      C2620   1.259       .  A
O2613     Cr2621   2.020       .  S
O2613      C2614   1.271       .  A
C2614      O2615   1.259       .  A
C2614      C2829   1.464       .  S
O2615     Cr2622   1.960       .  S
O2616     Cr2622   1.993       .  S
O2616      C2617   1.263       .  A
C2617      O2618   1.264       .  A
C2617      C2729   1.470       .  S
O2618     Cr2623   2.002       .  S
O2619     Cr2623   2.023       .  S
O2619      C2620   1.267       .  A
C2620      C2806   1.493       .  S
Cr2621     O2624   1.769       .  S
Cr2622     O2624   1.776       .  S
Cr2623     O2624   1.773       .  S
O2625     Cr3051   2.013       .  S
O2625      C2633   1.269       .  A
O2626     Cr2643   1.970       .  S
O2626      C2627   1.253       .  A
C2627      O2628   1.258       .  A
C2627      C2765   1.464       .  S
O2628     Cr2644   2.001       .  S
O2629     Cr2644   1.984   1_556  S
O2629      C3038   1.265       .  A
C2630      O3037   1.270       .  A
C2630      O2631   1.269       .  A
C2630      C2814   1.487       .  S
O2631     Cr2645   2.012       .  S
O2632     Cr2645   1.986       .  S
O2632      C2633   1.259       .  A
C2633      C2749   1.489       .  S
O2634     Cr2643   1.978       .  S
O2634      C2642   1.259       .  A
O2635     Cr2643   2.023       .  S
O2635      C2636   1.273       .  A
C2636      O2637   1.257       .  A
C2636      C2734   1.463       .  S
O2637     Cr2644   1.954       .  S
O2638     Cr2644   1.986       .  S
O2638      C2639   1.262       .  A
C2639      O3048   1.265       .  A
C2639      C2717   1.470       .  S
O2640     Cr2645   1.995       .  S
O2640      C3047   1.263       .  A
O2641     Cr2645   2.030       .  S
O2641      C3050   1.268       .  A
C2642      O3049   1.266   1_554  A
C2642      C2841   1.494       .  S
Cr2643     O3033   2.023   1_554  S
Cr2643     O2646   1.769       .  S
Cr2644     O2646   1.780       .  S
Cr2645     O3054   1.776       .  S
O2646     Cr3053   1.772   1_554  S
O2647     Cr2665   1.965       .  S
O2647      C2655   1.259       .  A
O2648     Cr2665   2.017       .  S
O2648      C2649   1.270       .  A
C2649      O2650   1.257       .  A
C2649      C2754   1.467       .  S
O2650     Cr2666   1.969       .  S
O2651     Cr2666   2.018       .  S
O2651      C2652   1.270       .  A
C2652      O2653   1.256       .  A
C2652      C2722   1.473       .  S
O2653     Cr2667   1.968       .  S
O2654     Cr2667   2.035       .  S
O2654      C2655   1.273       .  A
C2655      C2758   1.476       .  S
O2656     Cr2665   2.021       .  S
O2656      C2664   1.268       .  A
O2657     Cr2665   1.965       .  S
O2657      C3066   1.256   1_554  A
C2658      O3065   1.256       .  A
C2658      O3067   1.263       .  A
C2658      C2786   1.446       .  S
O2659     Cr2666   1.998       .  S
O2659      C3066   1.264   1_554  A
O2660     Cr2666   1.951       .  S
O2660      C2661   1.250       .  A
C2661      O2662   1.272       .  A
C2661      C2718   1.476       .  S
O2662     Cr2667   2.043       .  S
O2663     Cr2667   1.980       .  S
O2663      C2664   1.258       .  A
C2664      C2714   1.488       .  S
Cr2665     O2668   1.764       .  S
Cr2666     O2668   1.765       .  S
Cr2667     O2668   1.770       .  S
O2669     Cr2687   1.968       .  S
O2669      C2677   1.261       .  A
O2670     Cr2687   1.990       .  S
O2670      C2671   1.261       .  A
C2671      O2672   1.258       .  A
C2671      C2726   1.465       .  S
O2672     Cr2688   1.976       .  S
O2673     Cr2688   2.028       .  S
O2673      C2674   1.270       .  A
C2674      O2675   1.259       .  A
C2674      C2745   1.483       .  S
O2675     Cr2689   1.969       .  S
O2676     Cr2689   2.051       .  S
O2676      C2677   1.279       .  A
C2677      C2826   1.485       .  S
O2678     Cr2687   2.009       .  S
O2678      C2686   1.262       .  A
O2679     Cr2687   1.975       .  S
O2679      C2680   1.262       .  A
C2680      O2681   1.268       .  A
C2680      C2853   1.463       .  S
O2681     Cr2688   1.994       .  S
O2682     Cr2688   1.945       .  S
O2682      C2683   1.249       .  A
C2683      O2684   1.271       .  A
C2683      C2790   1.478       .  S
O2684     Cr2689   2.041       .  S
O2685     Cr2689   1.993       .  S
O2685      C2686   1.258       .  A
C2686      C2737   1.489       .  S
Cr2687     O2690   1.774       .  S
Cr2688     O2690   1.773       .  S
Cr2689     O2690   1.773       .  S
O2691     Cr2709   1.955       .  S
O2691      C3107   1.259       .  A
O2692     Cr2709   1.998       .  S
O2692      C2693   1.265       .  A
C2693      O2694   1.259       .  A
C2693      C2777   1.468       .  S
O2694     Cr2710   1.983       .  S
O2695     Cr2710   2.026       .  S
O2695      C3104   1.270       .  A
C2696      O3103   1.272   1_554  A
C2696      O2697   1.260       .  A
C2696      C2838   1.483       .  S
O2697     Cr2711   1.976       .  S
O2698     Cr2711   2.033       .  S
O2698      C2699   1.272       .  A
C2699      O3099   1.259       .  A
C2699      C2713   1.468       .  S
O2700     Cr2709   2.001       .  S
O2700      C2708   1.261       .  A
O2701     Cr2709   1.964       .  S
O2701      C2702   1.257       .  A
C2702      O2703   1.268       .  A
C2702      C2802   1.463       .  S
O2703     Cr2710   2.007       .  S
O2704     Cr2710   1.957       .  S
O2704      C2705   1.252       .  A
C2705      O3114   1.270       .  A
C2705      C2742   1.476       .  S
O2706     Cr2711   2.034       .  S
O2706      C3113   1.270   1_554  A
O2707     Cr2711   1.990   1_556  S
O2707      C3116   1.260       .  A
C2708      O3115   1.259       .  A
C2708      C2822   1.483       .  S
Cr2709     O2712   1.768       .  S
Cr2710     O2712   1.770       .  S
Cr2711     O3120   1.774   1_554  S
O2712     Cr3119   1.771       .  S
C2713      H2715   1.086       .  S
C2714      H2716   1.088       .  S
C2717      H2719   1.087       .  S
C2717      C2718   1.353       .  D
C2718      H2720   1.087       .  S
C2721      H2723   1.087       .  S
C2721      C2722   1.339       .  D
C2722      H2724   1.087       .  S
C2725      H2727   1.089       .  S
C2726      H2728   1.086       .  S
C2729      H2731   1.087       .  S
C2729      C2730   1.348       .  D
C2730      H2732   1.086       .  S
C2733      H2735   1.087       .  S
C2733      C2734   1.334       .  D
C2734      H2736   1.088       .  S
C2737      H2739   1.087   1_655  S
C2738      H2740   1.087       .  S
C2741      H2743   1.087       .  S
C2741      C2742   1.354       .  D
C2742      H2744   1.087       .  S
C2745      H2747   1.087       .  S
C2745      C2746   1.349       .  D
C2746      H2748   1.086       .  S
C2749      H2751   1.086       .  S
C2749      C2750   1.342       .  D
C2750      H2752   1.087       .  S
C2757      H2759   1.088       .  S
C2758      H2760   1.086   1_565  S
C2761      H2763   1.087       .  S
C2761      C2762   1.333       .  D
C2762      H2764   1.087       .  S
C2765      H2767   1.088       .  S
C2765      C2766   1.350       .  D
C2766      H2768   1.086       .  S
C2769      H2771   1.087       .  S
C2769      C2770   1.351       .  D
C2770      H2772   1.086       .  S
C2773      H2775   1.086       .  S
C2773      C2774   1.347       .  D
C2774      H2776   1.086       .  S
C2777      H2779   1.086   1_655  S
C2778      H2780   1.085       .  S
C2781      H2783   1.086   1_565  S
C2782      H2784   1.087       .  S
C2785      H2787   1.087       .  S
C2785      C2786   1.335       .  D
C2786      H2788   1.087       .  S
C2789      H2791   1.086       .  S
C2789      C2790   1.355       .  D
C2790      H2792   1.086       .  S
C2793      H2795   1.087       .  S
C2793      C2794   1.342       .  D
C2794      H2796   1.087       .  S
C2797      H2799   1.085       .  S
C2798      H2800   1.086       .  S
C2801      H2803   1.087       .  S
C2801      C2802   1.339       .  D
C2802      H2804   1.087       .  S
C2805      H2807   1.087       .  S
C2805      C2806   1.349       .  D
C2806      H2808   1.086       .  S
C2809      H2811   1.087       .  S
C2809      C2810   1.356       .  D
C2810      H2812   1.086       .  S
C2813      H2815   1.086       .  S
C2813      C2814   1.345       .  D
C2814      H2816   1.087       .  S
C2817      H2819   1.086       .  S
C2817      C2818   1.350       .  D
C2818      H2820   1.088       .  S
C2821      H2823   1.086       .  S
C2821      C2822   1.346       .  D
C2822      H2824   1.087       .  S
C2825      H2827   1.087       .  S
C2826      H2828   1.086       .  S
C2829      H2831   1.087       .  S
C2829      C2830   1.342       .  D
C2830      H2832   1.087       .  S
C2833      H2835   1.086       .  S
C2833      C2834   1.357       .  D
C2834      H2836   1.087       .  S
C2837      H2839   1.087       .  S
C2837      C2838   1.343       .  D
C2838      H2840   1.087       .  S
C2841      H2843   1.086       .  S
C2842      H2844   1.087       .  S
C2845      H2847   1.086       .  S
C2846      H2848   1.088       .  S
C2849      H2851   1.086       .  S
C2850      H2852   1.086       .  S
C2853      H2855   1.087       .  S
C2853      C2854   1.342       .  D
C2854      H2856   1.087       .  S
O2857     Cr2875   1.992       .  S
O2857      C2865   1.260       .  A
O2858     Cr2875   1.967       .  S
O2858      C2859   1.254       .  A
C2859      O2860   1.264       .  A
C2859      C3254   1.467   1_655  S
O2860     Cr2876   2.022       .  S
O2861     Cr2876   1.975       .  S
O2861      C2862   1.265       .  A
C2862      O2863   1.272       .  A
C2862      C3245   1.483       .  S
O2863     Cr2877   2.026       .  S
O2864     Cr2877   2.024       .  S
O2864      C2865   1.267       .  A
C2865      C3250   1.488       .  S
O2866     Cr2875   1.951       .  S
O2866      C2874   1.255       .  A
O2867     Cr2875   1.997       .  S
O2867      C2868   1.266       .  A
C2868      O2869   1.255       .  A
C2868      C3262   1.456       .  S
O2869     Cr2876   1.961       .  S
O2870     Cr2876   1.989       .  S
O2870      C2871   1.262       .  A
C2871      O2872   1.267       .  A
C2871      C3241   1.479       .  S
O2872     Cr2877   2.013       .  S
O2873     Cr2877   2.052       .  S
O2873      C2874   1.274       .  A
C2874      C3258   1.482       .  S
Cr2875     O2878   1.758       .  S
Cr2876     O2878   1.775       .  S
Cr2877     O2878   1.770       .  S
O2879     Cr2897   1.967       .  S
O2879      C2887   1.260       .  A
O2880     Cr2897   2.000       .  S
O2880      C2881   1.267       .  A
C2881      O2882   1.261       .  A
C2881      C3225   1.461       .  S
O2882     Cr2898   1.975       .  S
O2883     Cr2898   2.004       .  S
O2883      C2884   1.265       .  A
C2884      O2885   1.253       .  A
C2884      C3221   1.474       .  S
O2885     Cr2899   1.974       .  S
O2886     Cr2899   2.024       .  S
O2886      C2887   1.271       .  A
C2887      C3229   1.474       .  S
O2888     Cr2897   2.003       .  S
O2888      C2896   1.264       .  A
O2889     Cr2897   1.990       .  S
O2889      C2890   1.264       .  A
C2890      O2891   1.257       .  A
C2890      C3238   1.462       .  S
O2891     Cr2898   1.982       .  S
O2892     Cr2898   1.952       .  S
O2892      C2893   1.252       .  A
C2893      O2894   1.274       .  A
C2893      C3218   1.477       .  S
O2894     Cr2899   2.042       .  S
O2895     Cr2899   1.978       .  S
O2895      C2896   1.256       .  A
C2896      C3233   1.479       .  S
Cr2897     O2900   1.766       .  S
Cr2898     O2900   1.769       .  S
Cr2899     O2900   1.775       .  S
O2901     Cr2919   1.960       .  S
O2901      C2909   1.259       .  A
O2902     Cr2919   1.999       .  S
O2902      C2903   1.266       .  A
C2903      O2904   1.259       .  A
C2903      C3226   1.462       .  S
O2904     Cr2920   1.974       .  S
O2905     Cr2920   2.011       .  S
O2905      C2906   1.267       .  A
C2906      O2907   1.257       .  A
C2906      C3201   1.482       .  S
O2907     Cr2921   1.976       .  S
O2908     Cr2921   2.050       .  S
O2908      C2909   1.277       .  A
C2909      C3213   1.484       .  S
O2910     Cr2919   2.012       .  S
O2910      C2918   1.264       .  A
O2911     Cr2919   1.969       .  S
O2911      C2912   1.259       .  A
C2912      O2913   1.259       .  A
C2912      C3209   1.447       .  S
O2913     Cr2920   1.987       .  S
O2914     Cr2920   1.945       .  S
O2914      C2915   1.249       .  A
C2915      O2916   1.274       .  A
C2915      C3197   1.477       .  S
O2916     Cr2921   2.043       .  S
O2917     Cr2921   1.984       .  S
O2917      C2918   1.256       .  A
C2918      C3206   1.488       .  S
Cr2919     O2922   1.772       .  S
Cr2920     O2922   1.775       .  S
Cr2921     O2922   1.778       .  S
O2923     Cr2941   1.987       .  S
O2923      C2931   1.258       .  A
O2924     Cr2941   1.971       .  S
O2924      C2925   1.257       .  A
C2925      O2926   1.263       .  A
C2925      C3186   1.465       .  S
O2926     Cr2942   2.011       .  S
O2927     Cr2942   1.982       .  S
O2927      C2928   1.266       .  A
C2928      O2929   1.266       .  A
C2928      C3181   1.474       .  S
O2929     Cr2943   2.004       .  S
O2930     Cr2943   2.014       .  S
O2930      C2931   1.265       .  A
C2931      C3205   1.478       .  S
O2932     Cr2941   1.957       .  S
O2932      C2940   1.259       .  A
O2933     Cr2941   1.993       .  S
O2933      C2934   1.264       .  A
C2934      O2935   1.257       .  A
C2934      C3193   1.460       .  S
O2935     Cr2942   1.969       .  S
O2936     Cr2942   1.981       .  S
O2936      C2937   1.261       .  A
C2937      O2938   1.266       .  A
C2937      C3217   1.471       .  S
O2938     Cr2943   2.008       .  S
O2939     Cr2943   2.027       .  S
O2939      C2940   1.268       .  A
C2940      C3189   1.480   1_565  S
Cr2941     O2944   1.760       .  S
Cr2942     O2944   1.772       .  S
Cr2943     O2944   1.771       .  S
O2945     Cr2963   1.959       .  S
O2945      C2953   1.259       .  A
O2946     Cr2963   2.007       .  S
O2946      C2947   1.265       .  A
C2947      O2948   1.259       .  A
C2947      C3174   1.474       .  S
O2948     Cr2964   1.984       .  S
O2949     Cr2964   2.027       .  S
O2949      C2950   1.271       .  A
C2950      O2951   1.258       .  A
C2950      C3202   1.479       .  S
O2951     Cr2965   1.967       .  S
O2952     Cr2965   2.049       .  S
O2952      C2953   1.278       .  A
C2953      C3177   1.479       .  S
O2954     Cr2963   2.009       .  S
O2954      C2962   1.264       .  A
O2955     Cr2963   1.956       .  S
O2955      C2956   1.256       .  A
C2956      O2957   1.269       .  A
C2956      C3170   1.457       .  S
O2957     Cr2964   2.005       .  S
O2958     Cr2964   1.962       .  S
O2958      C2959   1.252       .  A
C2959      O2960   1.272       .  A
C2959      C3242   1.485       .  S
O2960     Cr2965   2.044       .  S
O2961     Cr2965   1.988       .  S
O2961      C2962   1.258       .  A
C2962      C3165   1.487       .  S
Cr2963     O2966   1.773       .  S
Cr2964     O2966   1.770       .  S
Cr2965     O2966   1.775       .  S
O2967     Cr2985   1.962       .  S
O2967      C2975   1.263       .  A
O2968     Cr2985   1.985       .  S
O2968      C2969   1.256       .  A
C2969      O2970   1.258       .  A
C2969      C3161   1.473       .  S
O2970     Cr2986   1.992       .  S
O2971     Cr2986   2.002       .  S
O2971      C2972   1.266       .  A
C2972      O2973   1.267       .  A
C2972      C3154   1.497       .  S
O2973     Cr2987   2.005       .  S
O2974     Cr2987   2.048       .  S
O2974      C2975   1.280       .  A
C2975      C3190   1.478       .  S
O2976     Cr2985   1.996       .  S
O2976      C2984   1.255       .  A
O2977     Cr2985   1.957       .  S
C2978      C3169   1.449       .  S
O2979     Cr2986   1.990       .  S
O2980     Cr2986   1.956       .  S
O2980      C2981   1.252       .  A
C2981      O2982   1.269       .  A
C2981      C3149   1.481       .  S
O2982     Cr2987   2.027       .  S
O2983     Cr2987   2.031       .  S
O2983      C2984   1.263       .  A
C2984      C3158   1.500       .  S
Cr2985     O2988   1.778       .  S
Cr2986     O2988   1.783       .  S
Cr2987     O2988   1.784       .  S
O2989     Cr3007   1.974       .  S
O2989      C2997   1.263       .  A
O2990     Cr3007   2.005       .  S
O2990      C2991   1.265       .  A
C2991      O2992   1.255       .  A
C2991      C3253   1.466       .  S
O2992     Cr3008   1.976       .  S
O2993     Cr3008   2.019       .  S
O2993      C2994   1.269       .  A
C2994      O2995   1.255       .  A
C2994      C3182   1.475       .  S
O2995     Cr3009   1.965       .  S
O2996     Cr3009   2.027       .  S
O2996      C2997   1.273       .  A
C2997      C3146   1.490       .  S
O2998     Cr3007   2.014       .  S
O2998      C3006   1.265       .  A
O2999     Cr3007   1.982       .  S
O2999      C3000   1.263       .  A
C3000      O3001   1.269       .  A
C3000      C3141   1.475       .  S
O3001     Cr3008   2.006       .  S
O3002     Cr3008   1.963       .  S
O3002      C3003   1.254       .  A
C3003      O3004   1.270       .  A
C3003      C3138   1.477       .  S
O3004     Cr3009   2.032       .  S
O3005     Cr3009   1.988       .  S
O3005      C3006   1.259       .  A
C3006      C3178   1.488       .  S
Cr3007     O3010   1.773       .  S
Cr3008     O3010   1.768       .  S
Cr3009     O3010   1.773       .  S
O3011     Cr3029   1.999       .  S
O3011      C3019   1.263       .  A
O3012     Cr3029   1.980       .  S
O3012      C3013   1.261       .  A
C3013      O3014   1.259       .  A
C3013      C3133   1.468   1_565  S
O3014     Cr3030   1.988       .  S
O3015     Cr3030   1.991       .  S
O3015      C3016   1.265       .  A
C3016      O3017   1.266       .  A
C3016      C3129   1.480       .  S
O3017     Cr3031   2.005       .  S
O3018     Cr3031   2.008       .  S
O3018      C3019   1.261       .  A
C3019      C3257   1.497       .  S
O3020     Cr3029   1.970       .  S
O3020      C3028   1.259       .  A
O3021     Cr3029   1.997       .  S
O3021      C3022   1.260       .  A
C3022      O3023   1.265       .  A
C3022      C3237   1.468       .  S
O3023     Cr3030   1.977       .  S
O3024     Cr3030   1.983       .  S
O3024      C3025   1.261       .  A
C3025      O3026   1.265       .  A
C3025      C3137   1.475       .  S
O3026     Cr3031   2.001       .  S
O3027     Cr3031   2.036       .  S
O3027      C3028   1.272       .  A
C3028      C3214   1.498       .  S
Cr3029     O3032   1.781       .  S
Cr3030     O3032   1.777       .  S
Cr3031     O3032   1.779       .  S
O3033      C3041   1.271       .  A
O3034     Cr3051   1.969       .  S
O3034      C3035   1.253       .  A
C3035      O3036   1.261       .  A
C3035      C3173   1.473       .  S
O3036     Cr3052   2.018       .  S
O3037     Cr3052   2.001       .  S
C3038      O3039   1.265       .  A
C3038      C3222   1.468       .  S
O3039     Cr3053   1.999       .  S
O3040     Cr3053   1.999       .  S
O3040      C3041   1.264       .  A
C3041      C3157   1.502       .  S
O3042     Cr3051   1.970       .  S
O3042      C3050   1.258       .  A
O3043     Cr3051   2.023       .  S
O3043      C3044   1.271       .  A
C3044      O3045   1.261       .  A
C3044      C3142   1.469       .  S
O3045     Cr3052   1.965       .  S
O3046     Cr3052   1.993       .  S
O3046      C3047   1.263       .  A
C3047      C3125   1.471       .  S
O3048     Cr3053   2.002   1_554  S
O3049     Cr3053   2.022       .  S
C3050      C3249   1.495       .  S
Cr3051     O3054   1.772       .  S
Cr3052     O3054   1.777       .  S
O3055     Cr3073   1.963       .  S
O3055      C3063   1.259       .  A
O3056     Cr3073   2.013       .  S
O3056      C3057   1.268       .  A
C3057      O3058   1.256       .  A
C3057      C3162   1.463   1_565  S
O3058     Cr3074   1.970       .  S
O3059     Cr3074   2.018       .  S
O3059      C3060   1.269       .  A
C3060      O3061   1.259       .  A
C3060      C3130   1.484       .  S
O3061     Cr3075   1.980       .  S
O3062     Cr3075   2.038       .  S
O3062      C3063   1.275       .  A
C3063      C3166   1.478       .  S
O3064     Cr3073   2.016       .  S
O3064      C3072   1.267       .  A
O3065     Cr3073   1.966       .  S
C3066      C3194   1.458       .  S
O3067     Cr3074   2.002       .  S
O3068     Cr3074   1.954       .  S
O3068      C3069   1.252       .  A
C3069      O3070   1.272       .  A
C3069      C3126   1.478       .  S
O3070     Cr3075   2.042       .  S
O3071     Cr3075   1.994       .  S
O3071      C3072   1.260       .  A
C3072      C3122   1.495       .  S
Cr3073     O3076   1.768       .  S
Cr3074     O3076   1.768       .  S
Cr3075     O3076   1.770       .  S
O3077     Cr3095   1.954       .  S
O3077      C3085   1.261       .  A
O3078     Cr3095   2.000       .  S
O3078      C3079   1.264       .  A
C3079      O3080   1.259       .  A
C3079      C3134   1.466       .  S
O3080     Cr3096   1.978       .  S
O3081     Cr3096   2.025       .  S
O3081      C3082   1.268       .  A
C3082      O3083   1.262       .  A
C3082      C3153   1.493       .  S
O3083     Cr3097   1.985       .  S
O3084     Cr3097   2.054       .  S
O3084      C3085   1.282       .  A
C3085      C3234   1.480       .  S
O3086     Cr3095   2.005       .  S
O3086      C3094   1.259       .  A
O3087     Cr3095   1.960       .  S
O3087      C3088   1.257       .  A
C3088      O3089   1.267       .  A
C3088      C3261   1.453       .  S
O3089     Cr3096   2.002       .  S
O3090     Cr3096   1.940       .  S
O3090      C3091   1.250       .  A
C3091      O3092   1.273       .  A
C3091      C3198   1.477       .  S
O3092     Cr3097   2.036       .  S
O3093     Cr3097   1.997       .  S
O3093      C3094   1.256       .  A
C3094      C3145   1.492       .  S
Cr3095     O3098   1.777       .  S
Cr3096     O3098   1.777       .  S
Cr3097     O3098   1.771       .  S
O3099     Cr3117   1.960   1_554  S
O3100     Cr3117   1.999       .  S
O3100      C3101   1.263       .  A
C3101      O3102   1.256       .  A
C3101      C3185   1.466       .  S
O3102     Cr3118   1.977       .  S
O3103     Cr3118   2.021       .  S
C3104      O3105   1.259       .  A
C3104      C3246   1.480       .  S
O3105     Cr3119   1.973       .  S
O3106     Cr3119   2.035       .  S
O3106      C3107   1.274       .  A
C3107      C3121   1.468       .  S
O3108     Cr3117   2.001       .  S
O3108      C3116   1.263       .  A
O3109     Cr3117   1.964       .  S
O3109      C3110   1.257       .  A
C3110      O3111   1.268       .  A
C3110      C3210   1.461       .  S
O3111     Cr3118   1.999       .  S
O3112     Cr3118   1.963       .  S
O3112      C3113   1.251       .  A
C3113      C3150   1.480       .  S
O3114     Cr3119   2.032       .  S
O3115     Cr3119   1.992       .  S
C3116      C3230   1.480       .  S
Cr3117     O3120   1.768       .  S
Cr3118     O3120   1.765       .  S
C3121      H3123   1.087   1_655  S
C3122      H3124   1.087       .  S
C3125      H3127   1.087       .  S
C3125      C3126   1.351       .  D
C3126      H3128   1.087       .  S
C3129      H3131   1.087       .  S
C3129      C3130   1.344       .  D
C3130      H3132   1.087       .  S
C3133      H3135   1.088       .  S
C3134      H3136   1.086       .  S
C3137      H3139   1.087       .  S
C3137      C3138   1.351       .  D
C3138      H3140   1.087       .  S
C3141      H3143   1.087       .  S
C3141      C3142   1.344       .  D
C3142      H3144   1.087       .  S
C3145      H3147   1.087   1_655  S
C3146      H3148   1.088       .  S
C3149      H3151   1.086       .  S
C3149      C3150   1.356       .  D
C3150      H3152   1.087       .  S
C3153      H3155   1.087       .  S
C3153      C3154   1.354       .  D
C3154      H3156   1.086       .  S
C3157      H3159   1.086       .  S
C3157      C3158   1.350       .  D
C3158      H3160   1.087       .  S
C3165      H3167   1.087       .  S
C3166      H3168   1.086       .  S
C3169      H3171   1.087       .  S
C3169      C3170   1.332       .  D
C3170      H3172   1.088       .  S
C3173      H3175   1.088       .  S
C3173      C3174   1.351       .  D
C3174      H3176   1.086       .  S
C3177      H3179   1.085       .  S
C3177      C3178   1.347       .  D
C3178      H3180   1.086       .  S
C3181      H3183   1.087       .  S
C3181      C3182   1.339       .  D
C3182      H3184   1.088       .  S
C3185      H3187   1.086   1_655  S
C3186      H3188   1.088       .  S
C3189      H3191   1.086       .  S
C3190      H3192   1.087       .  S
C3193      H3195   1.087       .  S
C3193      C3194   1.340       .  D
C3194      H3196   1.087       .  S
C3197      H3199   1.087       .  S
C3197      C3198   1.360       .  D
C3198      H3200   1.086       .  S
C3201      H3203   1.087       .  S
C3201      C3202   1.343       .  D
C3202      H3204   1.087       .  S
C3205      H3207   1.088       .  S
C3206      H3208   1.087   1_655  S
C3209      H3211   1.086       .  S
C3209      C3210   1.335       .  D
C3210      H3212   1.088       .  S
C3213      H3215   1.087       .  S
C3213      C3214   1.352       .  D
C3214      H3216   1.086       .  S
C3217      H3219   1.087       .  S
C3217      C3218   1.354       .  D
C3218      H3220   1.087       .  S
C3221      H3223   1.087       .  S
C3221      C3222   1.339       .  D
C3222      H3224   1.087       .  S
C3225      H3227   1.087       .  S
C3225      C3226   1.349       .  D
C3226      H3228   1.087       .  S
C3229      H3231   1.087       .  S
C3229      C3230   1.346       .  D
C3230      H3232   1.087       .  S
C3233      H3235   1.088   1_565  S
C3234      H3236   1.086       .  S
C3237      H3239   1.087       .  S
C3237      C3238   1.333       .  D
C3238      H3240   1.087       .  S
C3241      H3243   1.086       .  S
C3241      C3242   1.356       .  D
C3242      H3244   1.086       .  S
C3245      H3247   1.086       .  S
C3245      C3246   1.346       .  D
C3246      H3248   1.087       .  S
C3249      H3251   1.086       .  S
C3250      H3252   1.087   1_655  S
C3253      H3255   1.086       .  S
C3254      H3256   1.088       .  S
C3257      H3259   1.086       .  S
C3258      H3260   1.087       .  S
C3261      H3263   1.087       .  S
C3261      C3262   1.337       .  D
C3262      H3264   1.087       .  S
