geometry optimzed in LAMMPS
_audit_creation_date              2020-12-01 
_audit_creation_method            'lammps2cif' 
_symmetry_space_group_name_H-M    'P1' 
_symmetry_Int_Tables_number       1 
_symmetry_cell_setting            triclinic 
loop_ 
_symmetry_equiv_pos_as_xyz 
  x,y,z 
_cell_length_a                    31.81124317 
_cell_length_b                    31.960681157495628 
_cell_length_c                    47.217138757348394 
_cell_angle_alpha                 90.03523984380926 
_cell_angle_beta                  89.64344537652622 
_cell_angle_gamma                 90.16248410759539 
loop_ 
_atom_site_label 
_atom_site_type_symbol 
_atom_site_fract_x 
_atom_site_fract_y 
_atom_site_fract_z 
_atom_site_charge 
Zr1        Zr  0.49514764  0.05676559  0.87355108     2.17500
O2          O  0.51871506  0.98546057  0.88212926    -0.52100
O3          O  0.42075957  0.04049951  0.87158306    -0.75300
O4          O  0.47546684  0.03738344  0.92268333    -0.82100
O5          O  0.56185100  0.04538235  0.80761820    -0.83800
O6          O  0.46206474  0.09747669  0.94722239    -0.79500
O7          O  0.50465245  0.01645355  0.82809203    -0.91100
O8          O  0.38796597  0.09963073  0.85731716    -0.77100
O9          O  0.44995480  0.11465482  0.88377974    -0.86600
O10         O  0.48745999  0.09481738  0.83018781    -0.86200
O11         O  0.52757896  0.10018403  0.90949413    -0.73000
O12         O  0.56531966  0.07852046  0.86104561    -0.85100
Zr13       Zr  0.54618196  0.21415863  0.86384930     2.26400
Zr14       Zr  0.48132892  0.15880760  0.91873894     2.06300
Zr15       Zr  0.55709549  0.11856598  0.81849193     2.10000
Zr16       Zr  0.44130044  0.15033181  0.84055883     1.78800
O17         O  0.62486920  0.10133143  0.79737957    -0.93900
O18         O  0.38334919  0.19392085  0.85696124    -0.41700
O19         O  0.51077249  0.17523889  0.82761152    -0.78400
O20         O  0.47487230  0.19428658  0.87421556    -0.97100
O21         O  0.55218392  0.17819896  0.90760218    -0.90400
O22         O  0.59116042  0.15700144  0.85456924    -0.93200
C23         C  0.38744185  0.06206810  0.86743104     1.00500
C24         C  0.53134081  0.01959118  0.80717433     1.13500
C25         C  0.46482935  0.05720678  0.94556445     1.04300
O26         O  0.40882489  0.16697350  0.93469205    -0.95400
O27         O  0.46829706  0.23599839  0.92046216    -0.91100
O28         O  0.52893524  0.26004719  0.90259200    -0.84300
C29         C  0.49178892  0.26660727  0.91183117     1.10900
O30         O  0.61106737  0.05052377  0.91669465    -0.97300
Zr31       Zr  0.59688524  0.11995521  0.89758322     1.88900
O32         O  0.61498547  0.23356096  0.88138121    -0.74000
O33         O  0.50795319  0.17682507  0.96540823    -0.53300
O34         O  0.61039213  0.12336301  0.94826083    -0.97900
O35         O  0.66423519  0.09590501  0.87883700    -0.55100
O36         O  0.64558935  0.17770419  0.90209794    -0.74500
C37         C  0.64584497  0.21592334  0.89407647     0.97800
O38         O  0.52296262  0.28175446  0.84595904    -0.63300
O39         O  0.52062148  0.12637026  0.77353627    -0.58100
O40         O  0.58625544  0.23367612  0.82248223    -0.94800
O41         O  0.59571365  0.17522024  0.79611134    -0.93200
O42         O  0.41487380  0.12446865  0.79546430    -0.93600
O43         O  0.42326930  0.20656580  0.80805980    -0.92400
C44         C  0.60124444  0.21437564  0.80095300     1.16700
H45         H  0.47474931  0.07937501  0.81492334     0.32600
H46         H  0.45736862  0.21884516  0.87424704     0.43500
H47         H  0.61866917  0.16594667  0.84825299     0.37000
H48         H  0.53271937  0.08494991  0.92670731     0.33500
H49         H  0.35788851  0.18079605  0.84885150     0.25300
H50         H  0.52882731  0.19929136  0.96190244     0.31200
H51         H  0.64141631  0.12401912  0.94980500     0.37100
H52         H  0.38419081  0.12951648  0.79636450     0.31600
H53         H  0.54277724  0.13366371  0.75955802     0.30500
H54         H  0.64364299  0.09671889  0.81371406     0.32100
H55         H  0.67176952  0.11600118  0.86368299     0.31100
H56         H  0.44977219  0.22235795  0.80516120     0.35100
H57         H  0.54811430  0.30002603  0.84655954     0.27800
H58         H  0.49252710  0.96889519  0.88412133     0.32100
H59         H  0.64001557  0.05181465  0.92422160     0.34900
H60         H  0.51123634  0.09790850  0.76823721     0.27500
H61         H  0.51743933  0.27735356  0.82555276     0.40400
H62         H  0.39309296  0.14450129  0.92488730     0.30500
H63         H  0.38121147  0.18823774  0.87752748     0.38100
H64         H  0.65762084  0.06963763  0.86864642     0.29900
H65         H  0.48416000  0.19115156  0.97489634     0.30000
H66         H  0.53118772  0.98584361  0.90128756     0.30300
Zr67       Zr  0.43281143  0.00105063  0.63345324     2.17500
O68         O  0.50748492  0.98590195  0.62831150    -0.52100
O69         O  0.44600818  0.07680445  0.63552252    -0.75300
O70         O  0.45765365  0.01692488  0.58491373    -0.82100
O71         O  0.43336378  0.93848370  0.70423861    -0.83800
O72         O  0.39984817  0.03201461  0.55825247    -0.79500
O73         O  0.47087098  0.98625133  0.67908786    -0.91100
O74         O  0.38248649  0.10696826  0.64183397    -0.77100
O75         O  0.37531062  0.04487795  0.62130822    -0.86600
O76         O  0.39072589  0.00833612  0.67525194    -0.86200
O77         O  0.39349961  0.96747335  0.59573495    -0.73000
O78         O  0.40888352  0.93134372  0.64455589    -0.85100
Zr79       Zr  0.27221524  0.95037388  0.63665694     2.26400
Zr80       Zr  0.33578784  0.01344362  0.58432211     2.06300
Zr81       Zr  0.36440834  0.93959319  0.68537298     2.10000
Zr82       Zr  0.33590166  0.05430009  0.66322081     1.78800
O83         O  0.38471486  0.87000238  0.70088472    -0.93900
O84         O  0.28734926  0.10918059  0.64887840    -0.41700
O85         O  0.30793131  0.98577447  0.67480797    -0.78400
O86         O  0.29564724  0.02058826  0.62770718    -0.97100
O87         O  0.31270250  0.94368431  0.59437894    -0.90400
O88         O  0.32874738  0.90562111  0.64806732    -0.93200
C89         C  0.42151191  0.10883563  0.63458106     1.00500
C90         C  0.46491448  0.96257275  0.70126177     1.13500
C91         C  0.43985458  0.02802178  0.56151910     1.04300
O92         O  0.32832803  0.08382700  0.56533512    -0.95400
O93         O  0.26110952  0.03154375  0.57961664    -0.91100
O94         O  0.23355583  0.97118813  0.59492921    -0.84300
C95         C  0.22931859  0.00919109  0.58722890     1.10900
O96         O  0.43976427  0.87759131  0.59104095    -0.97300
Zr97       Zr  0.37006961  0.89946321  0.60670425     1.88900
O98         O  0.25325643  0.88128705  0.61955990    -0.74000
O99         O  0.32087674  0.98361436  0.53804144    -0.53300
O100        O  0.37035051  0.88859950  0.55559957    -0.97900
O101        O  0.38946507  0.83128998  0.62566223    -0.55100
O102        O  0.31160178  0.85293523  0.59962293    -0.74500
C103        C  0.27290707  0.85146924  0.60706706     0.97800
O104        O  0.20102893  0.96981778  0.65103280    -0.63300
O105        O  0.35548749  0.96751386  0.73314107    -0.58100
O106        O  0.25048624  0.90821874  0.67632897    -0.94800
O107        O  0.30523572  0.90373555  0.70652254    -0.93200
O108        O  0.36934659  0.08462547  0.70483424    -0.93600
O109        O  0.28642471  0.07337029  0.70065292    -0.92400
C110        C  0.26735002  0.89564897  0.69934718     1.16700
H111        H  0.40591415  0.01989056  0.69103251     0.32600
H112        H  0.27147838  0.03853215  0.62706450     0.43500
H113        H  0.31931313  0.87827397  0.65408965     0.37000
H114        H  0.41028119  0.96132722  0.57921635     0.33500
H115        H  0.29516383  0.13382156  0.66042790     0.25300
H116        H  0.32551489  0.00704998  0.52466852     0.31200
H117        H  0.34052029  0.88412517  0.55053024     0.37100
H118        H  0.36917678  0.11517300  0.70135116     0.31600
H119        H  0.35630565  0.94269923  0.74567039     0.30500
H120        H  0.39596659  0.85633826  0.68363719     0.32100
H121        H  0.38458818  0.81138801  0.60993352     0.31100
H122        H  0.28329608  0.04777756  0.71229384     0.35100
H123        H  0.18358401  0.94493213  0.64669617     0.27800
H124        H  0.52055406  0.01291754  0.62288651     0.32100
H125        H  0.43528547  0.85246058  0.57915204     0.34900
H126        H  0.38188692  0.98275116  0.73726834     0.27500
H127        H  0.20137318  0.97135033  0.67197937     0.40400
H128        H  0.34182876  0.10218189  0.57954588     0.30500
H129        H  0.29618554  0.11661515  0.62936525     0.38100
H130        H  0.36738292  0.82429905  0.63975195     0.29900
H131        H  0.34460920  0.96437801  0.53433502     0.30000
H132        H  0.50987178  0.96814067  0.61118845     0.30300
Zr133      Zr  0.01241177  0.99502201  0.87624397     2.17500
O134        O  0.94070262  0.97268842  0.88682325    -0.52100
O135        O  0.99996539  0.07036685  0.88324835    -0.75300
O136        O  0.99803081  0.00589107  0.92708316    -0.82100
O137        O  0.99180749  0.93590981  0.81546730    -0.83800
O138        O  0.06093632  0.00943490  0.95014398    -0.79500
O139        O  0.96684713  0.99498691  0.83296612    -0.91100
O140        O  0.05815166  0.10372775  0.86707117    -0.77100
O141        O  0.07274944  0.03682322  0.88625131    -0.86600
O142        O  0.04566303  0.00961668  0.83130688    -0.86200
O143        O  0.05876033  0.95375355  0.90614341    -0.73000
O144        O  0.03258215  0.92726774  0.85728629    -0.85100
Zr145      Zr  0.16921815  0.94673143  0.85310236     2.26400
Zr146      Zr  0.11875504  0.99806498  0.91618529     2.06300
Zr147      Zr  0.06691133  0.94262909  0.81292504     2.10000
Zr148      Zr  0.10303483  0.05319795  0.84177479     1.78800
O149        O  0.04490031  0.88298779  0.78433508    -0.93900
O150        O  0.15340220  0.10692891  0.85525345    -0.41700
O151        O  0.12558834  0.98712469  0.82203389    -0.78400
O152        O  0.14971050  0.01452340  0.87079241    -0.97100
O153        O  0.13825327  0.93115343  0.89779153    -0.90400
O154        O  0.11100984  0.90308889  0.84312641    -0.93200
C155        C  0.02253809  0.10371396  0.88023551     1.00500
C156        C  0.96952338  0.96842297  0.81234457     1.13500
C157        C  0.02034600  0.00994741  0.94973871     1.04300
O158        O  0.12699073  0.06425332  0.94107873    -0.95400
O159        O  0.19529885  0.01365200  0.91519442    -0.91100
O160        O  0.21998553  0.95941503  0.88983112    -0.84300
C161        C  0.22572488  0.99402659  0.90279245     1.10900
O162        O  0.01724173  0.86235919  0.91203277    -0.97300
Zr163      Zr  0.07935549  0.88790564  0.88696047     1.88900
O164        O  0.19347475  0.87595661  0.86314448    -0.74000
O165        O  0.14675788  0.96086806  0.95678400    -0.53300
O166        O  0.09371513  0.85838528  0.93346439    -0.97900
O167        O  0.05150243  0.82921473  0.85973551    -0.55100
O168        O  0.13877305  0.84027911  0.88223666    -0.74500
C169        C  0.17678681  0.84227573  0.87312196     0.97800
O170        O  0.23352761  0.97408248  0.83140534    -0.63300
O171        O  0.06154290  0.98565880  0.77051470    -0.58100
O172        O  0.18188519  0.91330214  0.80846122    -0.94800
O173        O  0.12009942  0.90648603  0.78528672    -0.93200
O174        O  0.06680945  0.08959256  0.80369826    -0.93600
O175        O  0.15068477  0.07268211  0.80336929    -0.92400
C176        C  0.15971906  0.90041690  0.78764840     1.16700
H177        H  0.02880588  0.02488767  0.81792834     0.32600
H178        H  0.17409152  0.03242996  0.87111312     0.43500
H179        H  0.11915896  0.87709769  0.83432072     0.37000
H180        H  0.04470228  0.94538480  0.92337544     0.33500
H181        H  0.14424777  0.13238071  0.84508681     0.25300
H182        H  0.13995252  0.97894991  0.97320656     0.31200
H183        H  0.12454100  0.86077371  0.93579480     0.37100
H184        H  0.07342881  0.11954346  0.80675430     0.31600
H185        H  0.08248026  0.00827767  0.77314440     0.30500
H186        H  0.02427923  0.86745566  0.79610375     0.32100
H187        H  0.07527243  0.81886638  0.84807791     0.31100
H188        H  0.17706192  0.05751650  0.80747459     0.35100
H189        H  0.22618610  0.97996986  0.81145493     0.27800
H190        H  0.92866905  0.99505515  0.89889146     0.32100
H191        H  0.01971278  0.83147975  0.91193471     0.34900
H192        H  0.07342271  0.96814782  0.75514614     0.27500
H193        H  0.23728382  0.00219126  0.83985421     0.40400
H194        H  0.13037248  0.08529583  0.92585144     0.30500
H195        H  0.14695600  0.11257083  0.87540864     0.38100
H196        H  0.03214030  0.84205741  0.84593749     0.29900
H197        H  0.12825231  0.93613891  0.95898294     0.30000
H198        H  0.94385806  0.94838636  0.89962515     0.30300
Zr199      Zr  0.96526579  0.06139937  0.63190641     2.17500
O200        O  0.94250342  0.99001357  0.62227399    -0.52100
O201        O  0.04078787  0.04868230  0.63131974    -0.75300
O202        O  0.98262000  0.04531592  0.58213175    -0.82100
O203        O  0.89964694  0.04205932  0.69222175    -0.83800
O204        O  0.99032030  0.10643447  0.55737647    -0.79500
O205        O  0.96107840  0.01848063  0.67629824    -0.91100
O206        O  0.07066152  0.11027120  0.64368408    -0.77100
O207        O  0.00670820  0.12205114  0.62150293    -0.86600
O208        O  0.97306328  0.09754241  0.67623977    -0.86200
O209        O  0.92723263  0.10396956  0.59814664    -0.73000
O210        O  0.89489174  0.08013428  0.64615586    -0.85100
Zr211      Zr  0.90965225  0.21642384  0.64712794     2.26400
Zr212      Zr  0.96991322  0.16507177  0.58838547     2.06300
Zr213      Zr  0.90288365  0.11705920  0.69003386     2.10000
Zr214      Zr  0.01680529  0.15498801  0.66580608     1.78800
O215        O  0.83898303  0.08802421  0.71101540    -0.93900
O216        O  0.07225099  0.20462782  0.65342048    -0.41700
O217        O  0.94743038  0.17607767  0.68152023    -0.78400
O218        O  0.98005158  0.19824745  0.63356910    -0.97100
O219        O  0.90030277  0.18320945  0.60268367    -0.90400
O220        O  0.86602519  0.15775920  0.65627112    -0.93200
C221        C  0.07291487  0.07299155  0.63340186     1.00500
C222        C  0.93246329  0.02020662  0.69589415     1.13500
C223        C  0.99006448  0.06606898  0.55907811     1.04300
O224        O  0.03513125  0.18226671  0.56382692    -0.95400
O225        O  0.98309732  0.24176401  0.58798368    -0.91100
O226        O  0.92866312  0.26886530  0.61268431    -0.84300
C227        C  0.96360255  0.27301959  0.59941086     1.10900
O228        O  0.83474964  0.05963589  0.58853517    -0.97300
Zr229      Zr  0.85840756  0.12291452  0.61258727     1.88900
O230        O  0.84035288  0.23718859  0.63066358    -0.74000
O231        O  0.92887927  0.18418406  0.54705649    -0.53300
O232        O  0.84384298  0.13357843  0.56249602    -0.97900
O233        O  0.79575240  0.09382337  0.63534032    -0.55100
O234        O  0.80871080  0.17991491  0.61198763    -0.74500
C235        C  0.80894306  0.21859181  0.61912966     0.97800
O236        O  0.93322361  0.28271194  0.66723851    -0.63300
O237        O  0.93644583  0.11638040  0.73629109    -0.58100
O238        O  0.87160839  0.23068033  0.69005024    -0.94800
O239        O  0.86201183  0.17035420  0.71437475    -0.93200
O240        O  0.04808744  0.12253799  0.70737806    -0.93600
O241        O  0.03406359  0.20752321  0.70136603    -0.92400
C242        C  0.85630327  0.20973786  0.71073258     1.16700
H243        H  0.98688834  0.08205916  0.69100166     0.32600
H244        H  0.99748595  0.22293128  0.63346374     0.43500
H245        H  0.83865215  0.16567947  0.66333663     0.37000
H246        H  0.92148806  0.08882102  0.58095492     0.33500
H247        H  0.09695659  0.19555147  0.66446189     0.25300
H248        H  0.94842211  0.20097119  0.53523198     0.31200
H249        H  0.81469050  0.14428339  0.56182619     0.37100
H250        H  0.07735498  0.11613751  0.70162778     0.31600
H251        H  0.95249216  0.14294321  0.73705632     0.30500
H252        H  0.84037066  0.09492849  0.73142711     0.32100
H253        H  0.78550766  0.11590991  0.64834812     0.31100
H254        H  0.00821366  0.22440959  0.70362025     0.35100
H255        H  0.90772193  0.30022913  0.66886149     0.27800
H256        H  0.96833150  0.97516767  0.61625398     0.32100
H257        H  0.80512896  0.06494966  0.58332338     0.34900
H258        H  0.91316394  0.12037748  0.75003411     0.27500
H259        H  0.94113960  0.27623693  0.68700316     0.40400
H260        H  0.05718289  0.17816910  0.57826231     0.30500
H261        H  0.07962512  0.19784682  0.63354696     0.38100
H262        H  0.80645527  0.07165684  0.64801250     0.29900
H263        H  0.92521892  0.15769592  0.53646940     0.30000
H264        H  0.92531265  0.99202720  0.60491953     0.30300
Zr265      Zr  0.44388979  0.53860833  0.87378351     2.17500
O266        O  0.51294186  0.56383503  0.88798204    -0.52100
O267        O  0.45642332  0.46361691  0.87854712    -0.75300
O268        O  0.45253958  0.52327057  0.92443831    -0.82100
O269        O  0.47268581  0.59785262  0.81412150    -0.83800
O270        O  0.38724782  0.52127658  0.94514884    -0.79500
O271        O  0.49357714  0.53766839  0.83220784    -0.91100
O272        O  0.39880307  0.43083572  0.86111530    -0.77100
O273        O  0.38215370  0.49722806  0.88108400    -0.86600
O274        O  0.41488524  0.52662777  0.82759048    -0.86200
O275        O  0.39492611  0.57840318  0.90289935    -0.73000
O276        O  0.42644804  0.60732755  0.85618623    -0.85100
Zr277      Zr  0.29085910  0.58990798  0.84582204     2.26400
Zr278      Zr  0.33302248  0.53520402  0.90970622     2.06300
Zr279      Zr  0.39741135  0.59510802  0.81010440     2.10000
Zr280      Zr  0.35646323  0.48286743  0.83531449     1.78800
O281        O  0.42787665  0.65825984  0.78936360    -0.93900
O282        O  0.30726071  0.42628836  0.84573790    -0.41700
O283        O  0.33754392  0.55045101  0.81594615    -0.78400
O284        O  0.30705307  0.52107022  0.86316885    -0.97100
O285        O  0.31613904  0.60320498  0.89218732    -0.90400
O286        O  0.35046869  0.63369900  0.83948579    -0.93200
C287        C  0.43421506  0.43053641  0.87431455     1.00500
C288        C  0.49396643  0.56447716  0.81166579     1.13500
C289        C  0.42772841  0.51933754  0.94606665     1.04300
O290        O  0.32039666  0.46612559  0.92974939    -0.95400
O291        O  0.25539158  0.52426888  0.90771145    -0.91100
O292        O  0.23071245  0.56564408  0.87242434    -0.84300
C293        C  0.22524409  0.53854918  0.89212513     1.10900
O294        O  0.43516879  0.67072053  0.91446482    -0.97300
Zr295      Zr  0.37734600  0.64551363  0.88522454     1.88900
O296        O  0.26515263  0.65894535  0.85976304    -0.74000
O297        O  0.30460503  0.56841870  0.95209102    -0.53300
O298        O  0.35713502  0.66406550  0.93348787    -0.97900
O299        O  0.41562605  0.70459093  0.86492229    -0.55100
O300        O  0.32045734  0.69521990  0.87763318    -0.74500
C301        C  0.28222867  0.69275219  0.86913672     0.97800
O302        O  0.22896126  0.56677043  0.81982297    -0.63300
O303        O  0.40658589  0.55623734  0.76613451    -0.58100
O304        O  0.28537341  0.62585323  0.80129621    -0.94800
O305        O  0.34880408  0.63224212  0.77972607    -0.93200
O306        O  0.39646634  0.44825163  0.79781129    -0.93600
O307        O  0.31168299  0.46585931  0.79525026    -0.92400
C308        C  0.30916176  0.63888690  0.78115224     1.16700
H309        H  0.43243020  0.51164530  0.81434663     0.32600
H310        H  0.28248044  0.50340230  0.86303495     0.43500
H311        H  0.34369479  0.66025861  0.83095108     0.37000
H312        H  0.40749318  0.58560811  0.92074707     0.33500
H313        H  0.31930451  0.40161346  0.83595117     0.25300
H314        H  0.31468090  0.55104434  0.96801172     0.31200
H315        H  0.32672123  0.67033743  0.93256306     0.37100
H316        H  0.40183044  0.41968671  0.80501463     0.31600
H317        H  0.38172085  0.53760996  0.76514271     0.30500
H318        H  0.42501881  0.65511536  0.76861360     0.32100
H319        H  0.40231951  0.72968747  0.87331944     0.31100
H320        H  0.28699332  0.48440914  0.79742325     0.35100
H321        H  0.21401747  0.59256456  0.81418796     0.27800
H322        H  0.52789803  0.53858151  0.89462152     0.32100
H323        H  0.42761816  0.69954542  0.92025830     0.34900
H324        H  0.40210883  0.57704472  0.75095114     0.27500
H325        H  0.24003282  0.55488466  0.80190561     0.40400
H326        H  0.33393138  0.44651861  0.91627917     0.30500
H327        H  0.31119901  0.42032611  0.86612126     0.38100
H328        H  0.40739594  0.70516390  0.84474619     0.29900
H329        H  0.32037045  0.59497911  0.95383019     0.30000
H330        H  0.50777555  0.58052214  0.90532949     0.30300
Zr331      Zr  0.50164326  0.47161377  0.63167989     2.17500
O332        O  0.52724319  0.54192447  0.62150799    -0.52100
O333        O  0.42725091  0.48827255  0.62914023    -0.75300
O334        O  0.48405113  0.48899187  0.58271059    -0.82100
O335        O  0.56575791  0.48522044  0.69308011    -0.83800
O336        O  0.47522707  0.42889954  0.55726291    -0.79500
O337        O  0.50694046  0.51352978  0.67650890    -0.91100
O338        O  0.39307113  0.42767350  0.63851639    -0.77100
O339        O  0.45843177  0.41350355  0.61892365    -0.86600
O340        O  0.48838724  0.43433620  0.67489119    -0.86200
O341        O  0.53917428  0.42893462  0.59741838    -0.73000
O342        O  0.56990377  0.44923445  0.64712966    -0.85100
Zr343      Zr  0.54967619  0.31316288  0.64456647     2.26400
Zr344      Zr  0.49493806  0.36950341  0.58616665     2.06300
Zr345      Zr  0.55651815  0.41060758  0.68978147     2.10000
Zr346      Zr  0.44300955  0.37921751  0.66177068     1.78800
O347        O  0.61920620  0.43084533  0.71602962    -0.93900
O348        O  0.38614871  0.33465455  0.64479821    -0.41700
O349        O  0.51032695  0.35385564  0.67864492    -0.78400
O350        O  0.48079285  0.33483659  0.63032606    -0.97100
O351        O  0.56300770  0.34807508  0.60107082    -0.90400
O352        O  0.59424186  0.37028969  0.65579819    -0.93200
C353        C  0.39384011  0.46569805  0.62912356     1.00500
C354        C  0.53478170  0.50993219  0.69626852     1.13500
C355        C  0.47581723  0.46892954  0.55963703     1.04300
O356        O  0.42967098  0.35598644  0.56108544    -0.95400
O357        O  0.47750112  0.29436859  0.58356782    -0.91100
O358        O  0.53042060  0.26394469  0.60763739    -0.84300
C359        C  0.49578358  0.26199019  0.59407016     1.10900
O360        O  0.63299187  0.47168022  0.59267934    -0.97300
Zr361      Zr  0.60606156  0.40674180  0.61300356     1.88900
O362        O  0.61956689  0.29161230  0.62881835    -0.74000
O363        O  0.53437229  0.35419776  0.54305294    -0.53300
O364        O  0.62199963  0.39691612  0.56290899    -0.97900
O365        O  0.66901424  0.43352165  0.63612133    -0.55100
O366        O  0.65395403  0.34853287  0.61185934    -0.74500
C367        C  0.65225282  0.30965444  0.61827377     0.97800
O368        O  0.52643922  0.24676771  0.66493374    -0.63300
O369        O  0.51771194  0.41402601  0.73440135    -0.58100
O370        O  0.58527619  0.29519576  0.68761357    -0.94800
O371        O  0.59352376  0.35430202  0.71345994    -0.93200
O372        O  0.41073011  0.40964200  0.70393333    -0.93600
O373        O  0.41942903  0.32399048  0.69366988    -0.92400
C374        C  0.59944821  0.31512382  0.70904238     1.16700
H375        H  0.47457559  0.45057431  0.68941218     0.32600
H376        H  0.46250686  0.31081867  0.62954561     0.43500
H377        H  0.62092322  0.36125010  0.66321500     0.37000
H378        H  0.54581251  0.44462916  0.58052341     0.33500
H379        H  0.36011286  0.34826185  0.65172459     0.25300
H380        H  0.51253051  0.34973048  0.52850943     0.31200
H381        H  0.65224219  0.38973675  0.56216472     0.37100
H382        H  0.39639368  0.43515315  0.69712248     0.31600
H383        H  0.49560899  0.39231106  0.73271305     0.30500
H384        H  0.61276173  0.42510220  0.73620129     0.32100
H385        H  0.69285485  0.42110913  0.62550866     0.31100
H386        H  0.43610461  0.29918953  0.68801337     0.35100
H387        H  0.49709354  0.24306112  0.65849264     0.27800
H388        H  0.50242497  0.55719287  0.61436475     0.32100
H389        H  0.65963639  0.46419688  0.58299948     0.34900
H390        H  0.53727070  0.40281310  0.74872798     0.27500
H391        H  0.54261890  0.22484501  0.65485487     0.40400
H392        H  0.40773592  0.36973456  0.57275896     0.30500
H393        H  0.38584515  0.33903976  0.62404388     0.38100
H394        H  0.66960830  0.41962784  0.65484187     0.29900
H395        H  0.54752950  0.38122452  0.53777016     0.30000
H396        H  0.54583575  0.53862904  0.60476166     0.30300
Zr397      Zr  0.95314075  0.47183526  0.87464170     2.17500
O398        O  0.93344989  0.54472412  0.88192700    -0.52100
O399        O  0.02799332  0.48659638  0.87379499    -0.75300
O400        O  0.96894288  0.49262016  0.92412351    -0.82100
O401        O  0.90049418  0.47642413  0.80053475    -0.83800
O402        O  0.98105326  0.43281219  0.94939460    -0.79500
O403        O  0.94690291  0.51133300  0.82819084    -0.91100
O404        O  0.06132064  0.42646652  0.86185777    -0.77100
O405        O  0.99704766  0.41390426  0.88682033    -0.86600
O406        O  0.96211200  0.43140432  0.83255018    -0.86200
O407        O  0.91752528  0.42995794  0.91045510    -0.73000
O408        O  0.88332376  0.45032347  0.86144879    -0.85100
Zr409      Zr  0.90116223  0.31329091  0.86676814     2.26400
Zr410      Zr  0.96235511  0.37131683  0.92159410     2.06300
Zr411      Zr  0.89283082  0.40805951  0.81995893     2.10000
Zr412      Zr  0.00771725  0.37648864  0.84434829     1.78800
O413        O  0.82599942  0.43745463  0.80487388    -0.93900
O414        O  0.06317702  0.32949887  0.85987567    -0.41700
O415        O  0.93871114  0.35165431  0.83081316    -0.78400
O416        O  0.97193658  0.33372439  0.87805162    -0.97100
O417        O  0.89248472  0.35133125  0.90952548    -0.90400
O418        O  0.85649889  0.37005124  0.85549106    -0.93200
C419        C  0.06149626  0.46483743  0.87057546     1.00500
C420        C  0.92627162  0.50628207  0.80454566     1.13500
C421        C  0.97800263  0.47289587  0.94727772     1.04300
O422        O  0.03162719  0.36125095  0.94209900    -0.95400
O423        O  0.97579870  0.29501062  0.92552482    -0.91100
O424        O  0.91853955  0.26664164  0.90519180    -0.84300
C425        C  0.95430554  0.26302164  0.91702590     1.10900
O426        O  0.83429958  0.47468730  0.92216742    -0.97300
Zr427      Zr  0.84904467  0.40940424  0.89744401     1.88900
O428        O  0.83107542  0.29404650  0.88364004    -0.74000
O429        O  0.92784436  0.35499086  0.96643211    -0.53300
O430        O  0.82458926  0.39868478  0.94585709    -0.97900
O431        O  0.79007435  0.44336994  0.87437565    -0.55100
O432        O  0.79807945  0.35325513  0.89828681    -0.74500
C433        C  0.79863132  0.31402265  0.89274178     0.97800
O434        O  0.92313983  0.24556426  0.84795363    -0.63300
O435        O  0.92153464  0.39689323  0.77259035    -0.58100
O436        O  0.86600073  0.29317408  0.82399935    -0.94800
O437        O  0.85400380  0.35122443  0.79780521    -0.93200
O438        O  0.03695414  0.40316183  0.80000356    -0.93600
O439        O  0.02416705  0.32422468  0.80846654    -0.92400
C440        C  0.85046254  0.31175328  0.80251803     1.16700
H441        H  0.97585976  0.44609550  0.81725909     0.32600
H442        H  0.98942727  0.30920453  0.87899675     0.43500
H443        H  0.82933431  0.36114457  0.84865709     0.37000
H444        H  0.91131295  0.44570191  0.92734837     0.33500
H445        H  0.08931307  0.34159938  0.85181686     0.25300
H446        H  0.94982993  0.34121443  0.97784014     0.31200
H447        H  0.84967722  0.40374545  0.95768910     0.37100
H448        H  0.05813089  0.42428765  0.80562294     0.31600
H449        H  0.92723695  0.36649799  0.77148188     0.30500
H450        H  0.82128210  0.46187396  0.81740728     0.32100
H451        H  0.76645737  0.44058253  0.88799138     0.31100
H452        H  0.00715339  0.29947630  0.81391374     0.35100
H453        H  0.95357177  0.24379112  0.85207453     0.27800
H454        H  0.95790414  0.55785963  0.89132201     0.32100
H455        H  0.84537614  0.49670138  0.90936645     0.34900
H456        H  0.94977003  0.40998691  0.77299071     0.27500
H457        H  0.90984926  0.22411415  0.86022333     0.40400
H458        H  0.05150978  0.37043078  0.92711533     0.30500
H459        H  0.06545913  0.33441501  0.88050876     0.38100
H460        H  0.78265837  0.42462880  0.85846812     0.29900
H461        H  0.92342912  0.38236858  0.97575269     0.30000
H462        H  0.91118710  0.54391980  0.89666684     0.30300
Zr463      Zr  0.03280251  0.53864382  0.63025723     2.17500
O464        O  0.96152831  0.56390387  0.62279874    -0.52100
O465        O  0.01613701  0.46468515  0.63385904    -0.75300
O466        O  0.00886285  0.51755346  0.58238861    -0.82100
O467        O  0.03457286  0.59087359  0.70446899    -0.83800
O468        O  0.06686359  0.50827580  0.55406578    -0.79500
O469        O  0.99486525  0.54780121  0.67726328    -0.91100
O470        O  0.07824175  0.43159183  0.63960182    -0.77100
O471        O  0.08972626  0.49451622  0.61596203    -0.86600
O472        O  0.07596888  0.52957376  0.67091104    -0.86200
O473        O  0.07222653  0.57220794  0.59237674    -0.73000
O474        O  0.05661530  0.60785979  0.64238420    -0.85100
Zr475      Zr  0.19264025  0.58897156  0.63174313     2.26400
Zr476      Zr  0.13056859  0.52705843  0.57941767     2.06300
Zr477      Zr  0.10197244  0.59793990  0.68240072     2.10000
Zr478      Zr  0.12978395  0.48356482  0.65698213     1.78800
O479        O  0.07913728  0.66434550  0.70246244    -0.93900
O480        O  0.17314801  0.42692103  0.63859654    -0.41700
O481        O  0.15747680  0.55190581  0.66948524    -0.78400
O482        O  0.17054438  0.51849558  0.62198679    -0.97100
O483        O  0.15187359  0.59693700  0.59023634    -0.90400
O484        O  0.13630710  0.63345249  0.64484374    -0.93200
C485        C  0.03869600  0.43151153  0.63344175     1.00500
C486        C  0.00218121  0.56803602  0.70081610     1.13500
C487        C  0.02684718  0.50923496  0.55832767     1.04300
O488        O  0.13638038  0.45638272  0.56060078    -0.95400
O489        O  0.20672552  0.51092372  0.57416520    -0.91100
O490        O  0.23336481  0.57082588  0.59025303    -0.84300
C491        C  0.23844174  0.53302452  0.58231689     1.10900
O492        O  0.02887913  0.65952733  0.58085770    -0.97300
Zr493      Zr  0.09447589  0.64055407  0.60402612     1.88900
O494        O  0.21081985  0.65865377  0.61509813    -0.74000
O495        O  0.14622427  0.55755303  0.53328747    -0.53300
O496        O  0.10452000  0.65801136  0.55421302    -0.97900
O497        O  0.06370019  0.70268758  0.62563835    -0.55100
O498        O  0.15102740  0.69067439  0.60126796    -0.74500
C499        C  0.19060827  0.69061201  0.60609519     0.97800
O500        O  0.26217885  0.56624336  0.64669175    -0.63300
O501        O  0.11591209  0.56619666  0.72829439    -0.58100
O502        O  0.21671871  0.62911071  0.67113843    -0.94800
O503        O  0.16225727  0.63517302  0.70185800    -0.93200
O504        O  0.10390685  0.45440159  0.70145705    -0.93600
O505        O  0.18669636  0.46470544  0.68870488    -0.92400
C506        C  0.20044765  0.64225450  0.69426280     1.16700
H507        H  0.06159846  0.51664939  0.68668558     0.32600
H508        H  0.19484720  0.50061394  0.62097440     0.43500
H509        H  0.14556300  0.66061833  0.65126161     0.37000
H510        H  0.05469294  0.57762973  0.57625877     0.33500
H511        H  0.16341453  0.40174805  0.64896472     0.25300
H512        H  0.17253427  0.57364858  0.53599674     0.31200
H513        H  0.10241784  0.63092071  0.54416905     0.37100
H514        H  0.10668601  0.42374966  0.69906158     0.31600
H515        H  0.14311882  0.55161160  0.72592229     0.30500
H516        H  0.08666354  0.68548269  0.68797764     0.32100
H517        H  0.08524776  0.71294827  0.63900737     0.31100
H518        H  0.21154984  0.47978947  0.68108943     0.35100
H519        H  0.27954730  0.59194475  0.64784444     0.27800
H520        H  0.94467693  0.53842364  0.61903720     0.32100
H521        H  0.03351956  0.68796703  0.57309981     0.34900
H522        H  0.12219049  0.58994114  0.74107714     0.27500
H523        H  0.25854873  0.55688764  0.66654833     0.40400
H524        H  0.11855626  0.43910805  0.57331112     0.30500
H525        H  0.16304487  0.42265853  0.61901654     0.38100
H526        H  0.04070951  0.69199145  0.63789683     0.29900
H527        H  0.15460982  0.53347042  0.52135030     0.30000
H528        H  0.96262905  0.57885110  0.60444013     0.30300
Zr529      Zr  0.45533550  0.56293350  0.38227588     2.17500
O530        O  0.43650334  0.48946801  0.38800990    -0.52100
O531        O  0.52950309  0.54846260  0.38094490    -0.75300
O532        O  0.46228749  0.53290813  0.33346691    -0.82100
O533        O  0.47435467  0.60414797  0.45780406    -0.83800
O534        O  0.40160956  0.54980379  0.31201816    -0.79500
O535        O  0.46614450  0.54423809  0.43196183    -0.91100
O536        O  0.56050997  0.60580017  0.36190972    -0.77100
O537        O  0.46121205  0.60202822  0.33996715    -0.86600
O538        O  0.49661821  0.62284501  0.39536703    -0.86200
O539        O  0.38391269  0.57895132  0.36970486    -0.73000
O540        O  0.41946525  0.60373825  0.41758230    -0.85100
Zr541      Zr  0.39590908  0.71580740  0.37212618     2.26400
Zr542      Zr  0.39066079  0.62028706  0.32750593     2.06300
Zr543      Zr  0.45975011  0.66516283  0.42856508     2.10000
Zr544      Zr  0.50580148  0.65825726  0.35166985     1.78800
O545        O  0.42966857  0.68792670  0.47354348    -0.93900
O546        O  0.53084895  0.63636851  0.30513583    -0.41700
O547        O  0.46708033  0.70016488  0.38450727    -0.78400
O548        O  0.43572163  0.67863108  0.33686603    -0.97100
O549        O  0.35278354  0.65698993  0.36291118    -0.90400
O550        O  0.38905382  0.68032883  0.41617100    -0.93200
C551        C  0.56223019  0.56942131  0.37363431     1.00500
C552        C  0.47293809  0.56404895  0.45536663     1.13500
C553        C  0.43720869  0.53185317  0.31196607     1.04300
O554        O  0.40937913  0.62475671  0.27755475    -0.95400
O555        O  0.35839049  0.67760259  0.30224784    -0.91100
O556        O  0.35642492  0.73417147  0.33084595    -0.84300
C557        C  0.34858878  0.71565062  0.30744270     1.10900
O558        O  0.33426818  0.55022118  0.42646271    -0.97300
Zr559      Zr  0.34881289  0.61891686  0.40604158     1.88900
O560        O  0.32825553  0.73305469  0.39164092    -0.74000
O561        O  0.32136308  0.59294473  0.31564520    -0.53300
O562        O  0.28374146  0.59298134  0.38541230    -0.97900
O563        O  0.33568652  0.61993688  0.45699604    -0.55100
O564        O  0.29847195  0.67507296  0.41104957    -0.74500
C565        C  0.29825975  0.71398034  0.40438130     0.97800
O566        O  0.41037511  0.78275757  0.34929557    -0.63300
O567        O  0.52859867  0.67977798  0.44864888    -0.58100
O568        O  0.41455651  0.76555851  0.40795091    -0.94800
O569        O  0.47602769  0.74053623  0.42250121    -0.93200
O570        O  0.56213853  0.69894222  0.37291869    -0.93600
O571        O  0.52884122  0.71877219  0.32434574    -0.92400
C572        C  0.45265835  0.77138534  0.41492661     1.16700
H573        H  0.52224724  0.61645949  0.40527242     0.32600
H574        H  0.43824552  0.69576182  0.32008040     0.43500
H575        H  0.37588936  0.69755180  0.43051157     0.37000
H576        H  0.36850768  0.55347506  0.36587924     0.33500
H577        H  0.53157789  0.60541710  0.30596346     0.25300
H578        H  0.30343241  0.61790400  0.31306015     0.31200
H579        H  0.29262793  0.57743849  0.36827410     0.37100
H580        H  0.57063343  0.68260990  0.38973972     0.31600
H581        H  0.52264172  0.68993265  0.46807027     0.30500
H582        H  0.41635666  0.66250294  0.48157718     0.32100
H583        H  0.33543126  0.64989931  0.46229584     0.31100
H584        H  0.51568635  0.74298718  0.33400977     0.35100
H585        H  0.39382792  0.80369356  0.36004178     0.27800
H586        H  0.45989912  0.47398175  0.37892791     0.32100
H587        H  0.30368438  0.54970321  0.43045479     0.34900
H588        H  0.54206347  0.65219726  0.45124678     0.27500
H589        H  0.44012190  0.78914644  0.35357806     0.40400
H590        H  0.43172807  0.64633623  0.27659025     0.30500
H591        H  0.50741037  0.64281496  0.29218031     0.38100
H592        H  0.36183600  0.60893278  0.46546057     0.29900
H593        H  0.32467895  0.58123656  0.29634066     0.30000
H594        H  0.41237046  0.48517606  0.37517270     0.30300
Zr595      Zr  0.51119838  0.49467071  0.12769077     2.17500
O596        O  0.43785469  0.47519343  0.12155263    -0.52100
O597        O  0.49930010  0.56938972  0.12656212    -0.75300
O598        O  0.47871562  0.50487078  0.17553212    -0.82100
O599        O  0.55228949  0.50188128  0.05190083    -0.83800
O600        O  0.49217784  0.44405093  0.19676608    -0.79500
O601        O  0.49142774  0.50380401  0.07781081    -0.91100
O602        O  0.55735617  0.59975329  0.14519844    -0.77100
O603        O  0.54953782  0.50491457  0.17019978    -0.86600
O604        O  0.57335635  0.53171308  0.11318006    -0.86200
O605        O  0.52548842  0.42517600  0.14479777    -0.73000
O606        O  0.55024217  0.45137156  0.09518740    -0.85100
Zr607      Zr  0.66297779  0.43225443  0.14263813     2.26400
Zr608      Zr  0.56546538  0.43587858  0.18715464     2.06300
Zr609      Zr  0.61293606  0.48839171  0.08185361     2.10000
Zr610      Zr  0.60898753  0.54464714  0.15657333     1.78800
O611        O  0.63833488  0.44688000  0.04198853    -0.93900
O612        O  0.60074660  0.57344513  0.20402090    -0.41700
O613        O  0.64773141  0.50094056  0.12538957    -0.78400
O614        O  0.62644692  0.47650131  0.17558782    -0.97100
O615        O  0.60285138  0.39220561  0.15496693    -0.90400
O616        O  0.62734101  0.41971825  0.09923298    -0.93200
C617        C  0.52086611  0.60182005  0.13344805     1.00500
C618        C  0.51204524  0.50469220  0.05415451     1.13500
C619        C  0.47647863  0.48045879  0.19734452     1.04300
O620        O  0.56742763  0.47282987  0.23226379    -0.95400
O621        O  0.61892168  0.40165243  0.21512069    -0.91100
O622        O  0.67792819  0.40205094  0.18825906    -0.84300
C623        C  0.65808015  0.39417230  0.21132931     1.10900
O624        O  0.49916334  0.35962904  0.09147482    -0.97300
Zr625      Zr  0.56504108  0.38275280  0.11231394     1.88900
O626        O  0.67871199  0.36199718  0.12827341    -0.74000
O627        O  0.53298194  0.37338625  0.20727609    -0.53300
O628        O  0.53161316  0.32710103  0.13968714    -0.97900
O629        O  0.56688575  0.36011426  0.06305599    -0.55100
O630        O  0.61953125  0.32968834  0.11327041    -0.74500
C631        C  0.65873936  0.32988332  0.11928041     0.97800
O632        O  0.73480765  0.44626913  0.15799871    -0.63300
O633        O  0.62339109  0.54760800  0.05001789    -0.58100
O634        O  0.71264949  0.44946585  0.10586394    -0.94800
O635        O  0.68717498  0.50913477  0.08873890    -0.93200
O636        O  0.64931467  0.60043380  0.13406426    -0.93600
O637        O  0.67565998  0.56151735  0.17910049    -0.92400
C638        C  0.71820284  0.48695718  0.09764889     1.16700
H639        H  0.56782530  0.55673523  0.10244128     0.32600
H640        H  0.64330801  0.48033326  0.19236167     0.43500
H641        H  0.64447214  0.40379259  0.08618652     0.37000
H642        H  0.49935213  0.41098796  0.14898118     0.33500
H643        H  0.58339093  0.59881668  0.20161163     0.25300
H644        H  0.55139619  0.35004227  0.20127620     0.31200
H645        H  0.55481313  0.30852524  0.14558543     0.37100
H646        H  0.64012346  0.60018162  0.11407780     0.31600
H647        H  0.61976382  0.57262404  0.06215267     0.30500
H648        H  0.65601935  0.46638104  0.03078717     0.32100
H649        H  0.58722674  0.33680632  0.06236086     0.31100
H650        H  0.69633611  0.54259417  0.17000567     0.35100
H651        H  0.73200758  0.46417732  0.17501225     0.27800
H652        H  0.42220851  0.50159642  0.12447141     0.32100
H653        H  0.48036232  0.38415166  0.09319336     0.34900
H654        H  0.65367996  0.54743860  0.04509226     0.27500
H655        H  0.74627825  0.41941365  0.16494138     0.40400
H656        H  0.54999577  0.45563543  0.24524703     0.30500
H657        H  0.58257540  0.55328241  0.21426578     0.38100
H658        H  0.58130420  0.38318247  0.05295394     0.29900
H659        H  0.53727634  0.37580526  0.22795894     0.30000
H660        H  0.43088232  0.45797870  0.13837308     0.30300
Zr661      Zr  0.51313424  0.03748389  0.37878970     2.17500
O662        O  0.44170590  0.05831722  0.39096439    -0.52100
O663        O  0.49593933  0.96369701  0.38048607    -0.75300
O664        O  0.47549579  0.03458972  0.33200036    -0.82100
O665        O  0.56534206  0.02132210  0.45209974    -0.83800
O666        O  0.49195480  0.09629596  0.31300149    -0.79500
O667        O  0.50217317  0.03287540  0.43057363    -0.91100
O668        O  0.54840037  0.92984090  0.35710918    -0.77100
O669        O  0.54530364  0.02903981  0.33374999    -0.86600
O670        O  0.57327498  0.99413254  0.38761284    -0.86200
O671        O  0.53196674  0.10707341  0.36327042    -0.73000
O672        O  0.56121726  0.07207855  0.40988873    -0.85100
Zr673      Zr  0.66875093  0.08723860  0.35597730     2.26400
Zr674      Zr  0.56662509  0.09745681  0.31821690     2.06300
Zr675      Zr  0.62196473  0.02946279  0.41738162     2.10000
Zr676      Zr  0.60104669  0.98214819  0.34150420     1.78800
O677        O  0.65153793  0.06312066  0.45906051    -0.93900
O678        O  0.56840828  0.95889799  0.29752160    -0.41700
O679        O  0.65005006  0.01814217  0.37121366    -0.78400
O680        O  0.62397147  0.05002273  0.32383437    -0.97100
O681        O  0.61096319  0.13278625  0.35035769    -0.90400
O682        O  0.64001876  0.09796289  0.40199278    -0.93200
C683        C  0.51406192  0.93016538  0.37190237     1.00500
C684        C  0.52513035  0.02596232  0.45266102     1.13500
C685        C  0.47335352  0.06126781  0.31134487     1.04300
O686        O  0.56579763  0.06198869  0.27253727    -0.95400
O687        O  0.61926521  0.13720087  0.29202611    -0.91100
O688        O  0.68195860  0.12420824  0.31255859    -0.84300
C689        C  0.65942442  0.14060307  0.29321178     1.10900
O690        O  0.51705165  0.16636037  0.42009200    -0.97300
Zr691      Zr  0.57931346  0.14050488  0.39554491     1.88900
O692        O  0.69195088  0.15638902  0.36965969    -0.74000
O693        O  0.54294326  0.16325434  0.29761158    -0.53300
O694        O  0.55432829  0.20543649  0.37472123    -0.97900
O695        O  0.58753031  0.15242162  0.44618999    -0.55100
O696        O  0.63866432  0.18697108  0.39456962    -0.74500
C697        C  0.67536085  0.18675809  0.38344227     0.97800
O698        O  0.73271628  0.06084594  0.33350733    -0.63300
O699        O  0.63318503  0.96184340  0.43991869    -0.58100
O700        O  0.72269126  0.06967854  0.38895625    -0.94800
O701        O  0.69696890  0.01185568  0.40959767    -0.93200
O702        O  0.64318691  0.92470012  0.35942157    -0.93600
O703        O  0.65451970  0.95724989  0.30848061    -0.92400
C704        C  0.72791938  0.03330199  0.39934254     1.16700
H705        H  0.56747240  0.96914718  0.39837152     0.26200
H706        H  0.63826753  0.04644513  0.30591890     0.43500
H707        H  0.66007883  0.11091584  0.41456786     0.37000
H708        H  0.50706471  0.12413568  0.36134312     0.33500
H709        H  0.57128388  0.92805506  0.29768051     0.25300
H710        H  0.53006850  0.15572836  0.27927031     0.31200
H711        H  0.56505264  0.22778264  0.38731524     0.37100
H712        H  0.64065312  0.92702811  0.38027678     0.31600
H713        H  0.63844494  0.96859231  0.46005695     0.30500
H714        H  0.68183094  0.05615201  0.45842390     0.32100
H715        H  0.61755324  0.15968710  0.44863864     0.31100
H716        H  0.68018189  0.97309978  0.31357965     0.35100
H717        H  0.72482999  0.05416825  0.31375889     0.27800
H718        H  0.42351687  0.04181090  0.37817391     0.32100
H719        H  0.49315689  0.15785692  0.40802816     0.34900
H720        H  0.60543810  0.94775630  0.43992357     0.27500
H721        H  0.75178168  0.08529051  0.33198201     0.40400
H722        H  0.57920329  0.08184721  0.25914685     0.30500
H723        H  0.53789499  0.96372399  0.30016675     0.38100
H724        H  0.58458855  0.12433747  0.45485075     0.29900
H725        H  0.51925336  0.17273266  0.30968047     0.30000
H726        H  0.43941784  0.08744965  0.38403762     0.30300
Zr727      Zr  0.44637735  0.96996864  0.12890285     2.17500
O728        O  0.42975400  0.04382796  0.12340591    -0.52100
O729        O  0.52137123  0.98252277  0.12532352    -0.75300
O730        O  0.45112739  0.00497015  0.17684563    -0.82100
O731        O  0.45569734  0.92798557  0.05309199    -0.83800
O732        O  0.39013474  0.98599051  0.19645746    -0.79500
O733        O  0.45138342  0.98853945  0.07831385    -0.91100
O734        O  0.55501391  0.92588474  0.14301869    -0.77100
O735        O  0.45888453  0.93248611  0.17136533    -0.86600
O736        O  0.48584197  0.90964396  0.11418157    -0.86200
O737        O  0.37709661  0.95175840  0.14592575    -0.73000
O738        O  0.40535057  0.92801591  0.09673459    -0.85100
Zr739      Zr  0.39070735  0.81420397  0.14503456     2.26400
Zr740      Zr  0.39037952  0.91241347  0.18830430     2.06300
Zr741      Zr  0.44477381  0.86688235  0.08372070     2.10000
Zr742      Zr  0.50119639  0.87506778  0.15749136     1.78800
O743        O  0.40361505  0.84240241  0.04361269    -0.93900
O744        O  0.53338355  0.89698755  0.20183122    -0.41700
O745        O  0.45901680  0.83273346  0.12736109    -0.78400
O746        O  0.43377015  0.85371099  0.17708163    -0.97100
O747        O  0.34857594  0.87279142  0.15654700    -0.90400
O748        O  0.37684030  0.84887799  0.10138529    -0.93200
C749        C  0.55487368  0.96187187  0.13075335     1.00500
C750        C  0.45518595  0.96830308  0.05471395     1.13500
C751        C  0.42463470  0.00565795  0.19787681     1.04300
O752        O  0.43148863  0.91255865  0.23168899    -0.95400
O753        O  0.35665468  0.85869180  0.21617041    -0.91100
O754        O  0.35900167  0.79903424  0.19051153    -0.84300
C755        C  0.34956938  0.81961100  0.21299547     1.10900
O756        O  0.31270900  0.97517809  0.09333292    -0.97300
Zr757      Zr  0.33720110  0.90956671  0.11371074     1.88900
O758        O  0.32150782  0.79377059  0.12957299    -0.74000
O759        O  0.32599661  0.93366168  0.21265813    -0.53300
O760        O  0.27804941  0.93592728  0.14144014    -0.97900
O761        O  0.31483873  0.90803800  0.06442256    -0.55100
O762        O  0.28820879  0.85139915  0.11298979    -0.74500
C763        C  0.28960326  0.81228702  0.11903669     0.97800
O764        O  0.40657642  0.74710607  0.16717038    -0.63300
O765        O  0.50507855  0.85354295  0.05291816    -0.58100
O766        O  0.41102991  0.76293462  0.11000089    -0.94800
O767        O  0.46807928  0.79335277  0.09071739    -0.93200
O768        O  0.55414860  0.83441209  0.13225289    -0.93600
O769        O  0.52719388  0.81553055  0.18437485    -0.92400
C770        C  0.44812262  0.76069047  0.09981789     1.16700
H771        H  0.50997902  0.91554301  0.10240944     0.32600
H772        H  0.43838342  0.83755379  0.19404581     0.43500
H773        H  0.36202557  0.83098842  0.08830247     0.37000
H774        H  0.36115081  0.97686314  0.14970804     0.33500
H775        H  0.52910486  0.92763292  0.20275150     0.25300
H776        H  0.33483218  0.94940122  0.22965899     0.31200
H777        H  0.27260554  0.91419490  0.15594637     0.37100
H778        H  0.55544597  0.84699601  0.11310404     0.31600
H779        H  0.49394428  0.85524184  0.03341784     0.30500
H780        H  0.42006438  0.81888855  0.03564015     0.32100
H781        H  0.29931573  0.88138653  0.06214588     0.31100
H782        H  0.50258711  0.79682054  0.18682752     0.35100
H783        H  0.39259510  0.72542329  0.15553217     0.27800
H784        H  0.45344090  0.05883946  0.13242661     0.32100
H785        H  0.28171421  0.97270204  0.09230232     0.34900
H786        H  0.52339673  0.87846613  0.05483706     0.27500
H787        H  0.43705791  0.74284540  0.16401217     0.40400
H788        H  0.42819301  0.88412222  0.23970465     0.30500
H789        H  0.51479071  0.88554444  0.21684568     0.38100
H790        H  0.34111953  0.90407898  0.05341851     0.29900
H791        H  0.31297588  0.95481334  0.20018687     0.30000
H792        H  0.40551937  0.04862958  0.13625009     0.30300
Zr793      Zr  0.98319748  0.55546988  0.13004863     2.17500
O794        O  0.00021907  0.48239881  0.12124024    -0.52100
O795        O  0.90798946  0.54112278  0.12966703    -0.75300
O796        O  0.98032801  0.52120651  0.17833485    -0.82100
O797        O  0.97504578  0.60043527  0.05414661    -0.83800
O798        O  0.04278312  0.53843578  0.19598955    -0.79500
O799        O  0.97857268  0.53929946  0.07896672    -0.91100
O800        O  0.87517488  0.59743831  0.14873569    -0.77100
O801        O  0.97447829  0.59155931  0.17352901    -0.86600
O802        O  0.94161183  0.61544525  0.11788360    -0.86200
O803        O  0.05370052  0.57371004  0.14467346    -0.73000
O804        O  0.02162190  0.59896666  0.09725580    -0.85100
Zr805      Zr  0.03797674  0.71023323  0.14618637     2.26400
Zr806      Zr  0.04371749  0.61191882  0.18806095     2.06300
Zr807      Zr  0.98039083  0.65919602  0.08646333     2.10000
Zr808      Zr  0.92972074  0.64798809  0.16262442     1.78800
O809        O  0.01115266  0.68934885  0.04371054    -0.93900
O810        O  0.90455690  0.61770844  0.20703564    -0.41700
O811        O  0.96864134  0.69191999  0.13107919    -0.78400
O812        O  0.99816024  0.66984889  0.17964231    -0.97100
O813        O  0.08228002  0.65235189  0.15487928    -0.90400
O814        O  0.04933702  0.67737802  0.10147273    -0.93200
C815        C  0.87453793  0.56146076  0.13643182     1.00500
C816        C  0.97596342  0.56028008  0.05557407     1.13500
C817        C  0.00778359  0.51992379  0.19857348     1.04300
O818        O  0.00753250  0.61298184  0.23365218    -0.95400
O819        O  0.08098700  0.66512982  0.21410924    -0.91100
O820        O  0.07132834  0.72593410  0.19063457    -0.84300
C821        C  0.08507188  0.70474666  0.21165442     1.10900
O822        O  0.11033907  0.55000603  0.09004990    -0.97300
Zr823      Zr  0.09088214  0.61699627  0.11110054     1.88900
O824        O  0.10769027  0.72952273  0.13157388    -0.74000
O825        O  0.10954626  0.58958306  0.20949660    -0.53300
O826        O  0.15510303  0.59197699  0.13318777    -0.97900
O827        O  0.10836429  0.62151128  0.06083852    -0.55100
O828        O  0.13952840  0.67558742  0.10906018    -0.74500
C829        C  0.13867573  0.71342689  0.11821779     0.97800
O830        O  0.02092637  0.77697044  0.16851039    -0.63300
O831        O  0.91388021  0.66531353  0.06152462    -0.58100
O832        O  0.01866327  0.76069699  0.11063244    -0.94800
O833        O  0.95969704  0.73233123  0.09310639    -0.93200
O834        O  0.87491438  0.69392567  0.14497367    -0.93600
O835        O  0.90513857  0.70413406  0.19346223    -0.92400
C836        C  0.98124354  0.76400410  0.10148513     1.16700
H837        H  0.91674526  0.60949339  0.10702583     0.32600
H838        H  0.99464083  0.68584022  0.19685972     0.43500
H839        H  0.06283479  0.69598166  0.08809633     0.37000
H840        H  0.06980257  0.54850977  0.14763252     0.33500
H841        H  0.89942937  0.58777036  0.20285018     0.25300
H842        H  0.10183112  0.57884612  0.22848629     0.31200
H843        H  0.14611220  0.56811585  0.14515322     0.37100
H844        H  0.87624477  0.69075018  0.12414009     0.31600
H845        H  0.89594696  0.68278908  0.07396760     0.30500
H846        H  0.03243973  0.66874083  0.03745584     0.32100
H847        H  0.10738885  0.65170710  0.05626149     0.31100
H848        H  0.92147063  0.70127227  0.21112900     0.35100
H849        H  0.99084419  0.78168884  0.16443633     0.27800
H850        H  0.97296697  0.46755856  0.12301483     0.32100
H851        H  0.14051589  0.55252590  0.08505278     0.34900
H852        H  0.92032583  0.68348979  0.04508178     0.27500
H853        H  0.03617794  0.79859937  0.15746514     0.40400
H854        H  0.00704474  0.64271836  0.23948977     0.30500
H855        H  0.92921108  0.61770282  0.21969290     0.38100
H856        H  0.08373387  0.60937246  0.05104603     0.29900
H857        H  0.11872662  0.56464610  0.19868368     0.30000
H858        H  0.01640763  0.47343270  0.13800609     0.30300
Zr859      Zr  0.92680647  0.49319688  0.38234416     2.17500
O860        O  0.00022998  0.47367919  0.38876112    -0.52100
O861        O  0.94352943  0.56791117  0.38292761    -0.75300
O862        O  0.96099027  0.49426992  0.33407189    -0.82100
O863        O  0.88427412  0.49790191  0.46012125    -0.83800
O864        O  0.94022253  0.43371102  0.31517999    -0.79500
O865        O  0.94414947  0.49586207  0.43316956    -0.91100
O866        O  0.88856196  0.60123445  0.36266425    -0.77100
O867        O  0.88934966  0.50324335  0.33956460    -0.86600
O868        O  0.86807333  0.53608917  0.39603456    -0.86200
O869        O  0.90584534  0.42383592  0.36747446    -0.73000
O870        O  0.88301078  0.45579149  0.41538734    -0.85100
Zr871      Zr  0.76959411  0.44269444  0.36924574     2.26400
Zr872      Zr  0.86646250  0.43488519  0.32474097     2.06300
Zr873      Zr  0.82403908  0.49833239  0.42833395     2.10000
Zr874      Zr  0.83398716  0.54893858  0.35212827     1.78800
O875        O  0.79164295  0.46818743  0.47057933    -0.93900
O876        O  0.85565741  0.57397103  0.30551213    -0.41700
O877        O  0.79020360  0.51121354  0.38444309    -0.78400
O878        O  0.80997696  0.48149718  0.33517273    -0.97100
O879        O  0.82599013  0.39725132  0.35846202    -0.90400
O880        O  0.80348008  0.43000861  0.41315320    -0.93200
C881        C  0.92464943  0.60141510  0.37497312     1.00500
C882        C  0.92452786  0.49671375  0.45726926     1.13500
C883        C  0.96069005  0.46768567  0.31328314     1.04300
O884        O  0.86769483  0.46972406  0.27889779    -0.95400
O885        O  0.80856753  0.40451794  0.29811689    -0.91100
O886        O  0.75088184  0.40864911  0.32611404    -0.84300
C887        C  0.76930037  0.39843905  0.30301394     1.10900
O888        O  0.92571107  0.36002428  0.42333970    -0.97300
Zr889      Zr  0.86247138  0.38752607  0.40145785     1.88900
O890        O  0.74657018  0.37379966  0.38246511    -0.74000
O891        O  0.88591259  0.36677679  0.30550648    -0.53300
O892        O  0.89125751  0.32426705  0.38010164    -0.97900
O893        O  0.85620034  0.37363681  0.45203347    -0.55100
O894        O  0.80343651  0.33943370  0.39943287    -0.74500
C895        C  0.76488441  0.34105500  0.39179678     0.97800
O896        O  0.70327429  0.46309905  0.34770339    -0.63300
O897        O  0.82310249  0.56536399  0.45291632    -0.58100
O898        O  0.72230433  0.46120391  0.40681680    -0.94800
O899        O  0.75032329  0.52095904  0.42217448    -0.93200
O900        O  0.79583392  0.60836146  0.37171192    -0.93600
O901        O  0.77177937  0.57121729  0.32646323    -0.92400
C902        C  0.71836009  0.49917212  0.41422024     1.16700
H903        H  0.87541731  0.56108133  0.40632946     0.32600
H904        H  0.79345400  0.48567671  0.31833041     0.43500
H905        H  0.78505407  0.41645767  0.42666403     0.37000
H906        H  0.93056284  0.40702288  0.36390944     0.33500
H907        H  0.88660477  0.57694815  0.30655880     0.25300
H908        H  0.90027959  0.37274722  0.28729597     0.31200
H909        H  0.86720704  0.31028155  0.37079978     0.37100
H910        H  0.80960332  0.61416798  0.39004654     0.31600
H911        H  0.80381398  0.58301888  0.44172231     0.30500
H912        H  0.81244049  0.47244945  0.48580998     0.32100
H913        H  0.83174556  0.35465620  0.45394985     0.31100
H914        H  0.74886198  0.55316197  0.33385556     0.35100
H915        H  0.68105593  0.44894588  0.35895270     0.27800
H916        H  0.00580291  0.45276378  0.37373434     0.32100
H917        H  0.94108397  0.38514058  0.42996227     0.34900
H918        H  0.80762886  0.55977226  0.47077700     0.27500
H919        H  0.70007150  0.49323363  0.35196123     0.40400
H920        H  0.86390353  0.44707478  0.26483425     0.30500
H921        H  0.85111455  0.54990318  0.29269374     0.38100
H922        H  0.84644571  0.40038809  0.46026457     0.29900
H923        H  0.90832331  0.35630860  0.31810775     0.30000
H924        H  0.00099746  0.45721484  0.40649852     0.30300
Zr925      Zr  0.00068446  0.97194552  0.37808410     2.17500
O926        O  0.02039705  0.04509825  0.38429911    -0.52100
O927        O  0.92542240  0.98677709  0.37767665    -0.75300
O928        O  0.00017270  0.00379945  0.32891938    -0.82100
O929        O  0.98622913  0.93193209  0.45500008    -0.83800
O930        O  0.05672554  0.97963202  0.30514666    -0.79500
O931        O  0.99561281  0.99150752  0.42893078    -0.91100
O932        O  0.89297401  0.93068014  0.35773727    -0.77100
O933        O  0.99295023  0.93324573  0.33568071    -0.86600
O934        O  0.95732875  0.91318395  0.39101954    -0.86200
O935        O  0.07076752  0.95124807  0.36407199    -0.73000
O936        O  0.03591541  0.92936370  0.41246889    -0.85100
Zr937      Zr  0.05274121  0.81510267  0.36797583     2.26400
Zr938      Zr  0.06166329  0.90959281  0.32214473     2.06300
Zr939      Zr  0.99229559  0.87032801  0.42448037     2.10000
Zr940      Zr  0.94677053  0.87796553  0.34716918     1.78800
O941        O  0.02105353  0.84277543  0.46834027    -0.93900
O942        O  0.92813382  0.90152026  0.29980168    -0.41700
O943        O  0.98276191  0.83545310  0.38066965    -0.78400
O944        O  0.01522229  0.85290328  0.33247956    -0.97100
O945        O  0.09816576  0.87141813  0.35715391    -0.90400
O946        O  0.06203998  0.85138812  0.41141850    -0.93200
C947        C  0.89226785  0.96683863  0.36981109     1.00500
C948        C  0.98966755  0.97200250  0.45274289     1.13500
C949        C  0.02382560  0.00195235  0.30626219     1.04300
O950        O  0.02797896  0.90034195  0.27641055    -0.95400
O951        O  0.09304313  0.85181350  0.29636737    -0.91100
O952        O  0.09178655  0.79656129  0.32623203    -0.84300
C953        C  0.10073597  0.81349887  0.30241516     1.10900
O954        O  0.13275580  0.97869478  0.41298184    -0.97300
Zr955      Zr  0.10554438  0.91006760  0.39961821     1.88900
O956        O  0.11965877  0.79450273  0.38635879    -0.74000
O957        O  0.13188772  0.93109484  0.30691176    -0.53300
O958        O  0.17298713  0.92323170  0.37633705    -0.97900
O959        O  0.11859825  0.91604128  0.45027793    -0.55100
O960        O  0.14994010  0.84999594  0.40808817    -0.74500
C961        C  0.14914659  0.81138007  0.40063214     0.97800
O962        O  0.03203813  0.74640505  0.35027959    -0.63300
O963        O  0.92286666  0.86521562  0.44629362    -0.58100
O964        O  0.03054462  0.76734099  0.40411971    -0.94800
O965        O  0.97004597  0.79591992  0.41787448    -0.93200
O966        O  0.88396380  0.84206283  0.36391005    -0.93600
O967        O  0.92547808  0.81673050  0.32003264    -0.92400
C968        C  0.99181814  0.76361486  0.41040928     1.16700
H969        H  0.93185507  0.92017819  0.40104543     0.32600
H970        H  0.01203689  0.83550408  0.31587125     0.43500
H971        H  0.07426652  0.83396215  0.42585193     0.37000
H972        H  0.08746841  0.97579422  0.35973674     0.33500
H973        H  0.89902324  0.89134404  0.29701461     0.25300
H974        H  0.13108153  0.93114380  0.28597640     0.31200
H975        H  0.17261150  0.90623470  0.35880795     0.37100
H976        H  0.87726928  0.85546503  0.38229949     0.31600
H977        H  0.92833371  0.85831715  0.46636474     0.30500
H978        H  0.00171439  0.81975903  0.47373449     0.32100
H979        H  0.11645997  0.88707657  0.45755769     0.31100
H980        H  0.93826510  0.79279880  0.33010156     0.35100
H981        H  0.02115029  0.75139763  0.33097977     0.27800
H982        H  0.99439531  0.06089430  0.38021841     0.32100
H983        H  0.16166802  0.97371207  0.41984733     0.34900
H984        H  0.91172898  0.89408946  0.44667396     0.27500
H985        H  0.05843828  0.73055501  0.34750400     0.40400
H986        H  0.00377984  0.91973269  0.27672941     0.30500
H987        H  0.92526634  0.93227652  0.30139483     0.38100
H988        H  0.09339606  0.93027428  0.45800810     0.29900
H989        H  0.13460910  0.96091423  0.31229987     0.30000
H990        H  0.03939855  0.05145180  0.36816850     0.30300
Zr991      Zr  0.91855838  0.02959603  0.12947494     2.17500
O992        O  0.99285231  0.04744673  0.12538676    -0.52100
O993        O  0.93325695  0.95475610  0.13093077    -0.75300
O994        O  0.95003365  0.03195443  0.17855575    -0.82100
O995        O  0.88457293  0.01893133  0.05166417    -0.83800
O996        O  0.92166741  0.08708344  0.20147241    -0.79500
O997        O  0.94281077  0.02342775  0.07962046    -0.91100
O998        O  0.87440538  0.92288938  0.14749463    -0.77100
O999        O  0.87651926  0.02172547  0.17075201    -0.86600
O1000       O  0.86036849  0.98703372  0.11447845    -0.86200
O1001       O  0.89703787  0.09937847  0.14249904    -0.73000
O1002       O  0.87883246  0.06594630  0.09390258    -0.85100
Zr1003     Zr  0.75954408  0.08125272  0.13556471     2.26400
Zr1004     Zr  0.85236146  0.09038858  0.18316052     2.06300
Zr1005     Zr  0.82036109  0.02333627  0.07991444     2.10000
Zr1006     Zr  0.82162256  0.97618309  0.15727219     1.78800
O1007       O  0.79665980  0.05537957  0.03610336    -0.93900
O1008       O  0.84488544  0.95238542  0.20367977    -0.41700
O1009       O  0.78151639  0.01231787  0.12257174    -0.78400
O1010       O  0.79587372  0.04403108  0.17202014    -0.97100
O1011       O  0.81574138  0.12639485  0.14752829    -0.90400
O1012       O  0.79926147  0.09209758  0.09319675    -0.93200
C1013       C  0.91174095  0.92179209  0.13707617     1.00500
C1014       C  0.92462538  0.02057707  0.05518314     1.13500
C1015       C  0.94694683  0.05648927  0.20054642     1.04300
O1016       O  0.84219474  0.06288683  0.23083263    -0.95400
O1017       O  0.79416114  0.12928238  0.20349451    -0.91100
O1018       O  0.73683617  0.12246617  0.17574971    -0.84300
C1019       C  0.75543327  0.13645214  0.19779510     1.10900
O1020       O  0.92381993  0.15686808  0.08506178    -0.97300
Zr1021     Zr  0.85755938  0.13471901  0.10646143     1.88900
O1022       O  0.73885201  0.14838529  0.11857381    -0.74000
O1023       O  0.87886113  0.15851170  0.19803140    -0.53300
O1024       O  0.88654984  0.19579442  0.13023483    -0.97900
O1025       O  0.85323122  0.15678116  0.05714338    -0.55100
O1026       O  0.79950637  0.18378252  0.10916662    -0.74500
C1027       C  0.75956288  0.18165653  0.11297747     0.97800
O1028       O  0.69131367  0.05635499  0.15237449    -0.63300
O1029       O  0.81527041  0.95695880  0.05458566    -0.58100
O1030       O  0.71869545  0.06246664  0.09492368    -0.94800
O1031       O  0.74590579  0.00137706  0.08238274    -0.93200
O1032       O  0.78283881  0.91842918  0.13616216    -0.93600
O1033       O  0.76174264  0.95293659  0.18559227    -0.92400
C1034       C  0.71384691  0.02416458  0.08845335     1.16700
H1035       H  0.86803478  0.96199741  0.10433237     0.32600
H1036       H  0.77745123  0.04080595  0.18819728     0.43500
H1037       H  0.78274865  0.10542188  0.07869304     0.37000
H1038       H  0.92141611  0.11592711  0.14738816     0.33500
H1039       H  0.83667186  0.92249459  0.20449147     0.25300
H1040       H  0.86421131  0.17884258  0.18577362     0.31200
H1041       H  0.88192612  0.21918106  0.11687445     0.37100
H1042       H  0.80062382  0.90901645  0.12011024     0.31600
H1043       H  0.84369270  0.95123905  0.04691401     0.30500
H1044       H  0.77929700  0.03351973  0.02695918     0.32100
H1045       H  0.83511576  0.18190462  0.05738732     0.31100
H1046       H  0.73770547  0.96925103  0.17831119     0.35100
H1047       H  0.69536736  0.04956905  0.17262910     0.27800
H1048       H  0.00773394  0.02294858  0.13328463     0.32100
H1049       H  0.94356037  0.13380086  0.08921913     0.34900
H1050       H  0.81117626  0.93570726  0.06959798     0.27500
H1051       H  0.67286044  0.08123846  0.15236394     0.40400
H1052       H  0.81249061  0.05371786  0.23183130     0.30500
H1053       H  0.87597342  0.95185929  0.20248211     0.38100
H1054       H  0.83614389  0.13507391  0.04763022     0.29900
H1055       H  0.86670663  0.16319848  0.21711967     0.30000
H1056       H  0.99734981  0.07001643  0.13943684     0.30300
C1057       C  0.97844333  0.05195317  0.27925072    -0.09900
C1058       C  0.01062301  0.02227639  0.27890494     0.06300
C1059       C  0.02591426  0.00896979  0.25177690    -0.03700
C1060       C  0.00532669  0.02088251  0.22680254    -0.08100
C1061       C  0.97133100  0.04849069  0.22729324     0.05400
C1062       C  0.95971653  0.06604086  0.25414457    -0.03200
Br1063     Br  0.91792272  0.10867285  0.25975694    -0.02900
H1064       H  0.96710014  0.06390619  0.29936547     0.09300
H1065       H  0.01609734  0.00827704  0.20673299     0.07300
Br1066     Br  0.07456029  0.97446156  0.24575543    -0.03300
C1067       C  0.91589967  0.67754495  0.38609087    -0.09900
C1068       C  0.94297948  0.64292270  0.38327813     0.06300
C1069       C  0.98538169  0.64820228  0.39147762    -0.03700
C1070       C  0.99929156  0.68683164  0.40204317    -0.08100
C1071       C  0.97231643  0.72160535  0.40474629     0.05400
C1072       C  0.92984500  0.71615357  0.39683456    -0.03200
Br1073     Br  0.88870991  0.75956740  0.39974019    -0.02900
H1074       H  0.88306434  0.67445125  0.38050292     0.09300
H1075       H  0.03217374  0.68992699  0.40749360     0.07300
Br1076     Br  0.02711939  0.60514929  0.38765929    -0.03300
C1077       C  0.92578938  0.80444782  0.12496914    -0.09900
C1078       C  0.96012212  0.80413848  0.10627397     0.06300
C1079       C  0.97815904  0.84217402  0.09767400    -0.03700
C1080       C  0.96249254  0.87982669  0.10844358    -0.08100
C1081       C  0.92895142  0.88049657  0.12817812     0.05400
C1082       C  0.91008872  0.84186552  0.13602286    -0.03200
Br1083     Br  0.86391287  0.83643980  0.16229986    -0.02900
H1084       H  0.91243747  0.77509238  0.13224445     0.09300
H1085       H  0.97651033  0.90873542  0.10097781     0.07300
Br1086     Br  0.02335158  0.84403030  0.07061050    -0.03300
C1087       C  0.11259085  0.74163231  0.28508445    -0.09900
C1088       C  0.11575009  0.78488802  0.27986574     0.06300
C1089       C  0.12280066  0.79836162  0.25181893    -0.03700
C1090       C  0.11704903  0.77014454  0.22964101    -0.08100
C1091       C  0.10473921  0.72853900  0.23493704     0.05400
C1092       C  0.10615539  0.71344093  0.26306328    -0.03200
Br1093     Br  0.09374099  0.65679542  0.27422364    -0.02900
H1094       H  0.11007756  0.72989636  0.30653899     0.09300
H1095       H  0.11928601  0.78168798  0.20810880     0.07300
Br1096     Br  0.13837796  0.85463879  0.24204728    -0.03300
C1097       C  0.96196577  0.45633975  0.26057686    -0.09900
C1098       C  0.97845031  0.47777872  0.28443894     0.06300
C1099       C  0.00765565  0.51006023  0.27928652    -0.03700
C1100       C  0.01798559  0.52114149  0.25128188    -0.08100
C1101       C  0.99836154  0.50243050  0.22750998     0.05400
C1102       C  0.97059656  0.46903856  0.23259840    -0.03200
Br1103     Br  0.94424122  0.43914890  0.20225579    -0.02900
H1104       H  0.94045468  0.43042908  0.26351198     0.09300
H1105       H  0.04092750  0.54572356  0.24827090     0.07300
Br1106     Br  0.03496366  0.54002963  0.30930145    -0.03300
C1107       C  0.21228615  0.80694893  0.11835694    -0.09900
C1108       C  0.25121797  0.78731178  0.11464759     0.06300
C1109       C  0.25229368  0.74414172  0.10833407    -0.03700
C1110       C  0.21502843  0.72103380  0.10818575    -0.08100
C1111       C  0.17625788  0.74010506  0.11414823     0.05400
C1112       C  0.17498732  0.78409852  0.11794784    -0.03200
Br1113     Br  0.12412795  0.81608583  0.12231756    -0.02900
H1114       H  0.21080817  0.84026089  0.12252624     0.09300
H1115       H  0.21672352  0.68766878  0.10430795     0.07300
Br1116     Br  0.30312389  0.71471958  0.09927327    -0.03300
C1117       C  0.62612917  0.94941488  0.11024883    -0.09900
C1118       C  0.59502880  0.97809758  0.11887391     0.06300
C1119       C  0.60112841  0.02087320  0.11267583    -0.03700
C1120       C  0.63831750  0.03407815  0.09963200    -0.08100
C1121       C  0.67112839  0.00598873  0.09321852     0.05400
C1122       C  0.66374761  0.96278254  0.09745230    -0.03200
Br1123     Br  0.70313909  0.92010631  0.08675705    -0.02900
H1124       H  0.62111455  0.91617149  0.11330014     0.09300
H1125       H  0.64254856  0.06734197  0.09621111     0.07300
Br1126     Br  0.56189439  0.06390285  0.12334599    -0.03300
C1127       C  0.71363334  0.29497971  0.36847280    -0.09900
C1128       C  0.74059787  0.30197277  0.39148150     0.06300
C1129       C  0.74573499  0.27038945  0.41205012    -0.03700
C1130       C  0.72455919  0.23238305  0.40900584    -0.08100
C1131       C  0.69890527  0.22540191  0.38556190     0.05400
C1132       C  0.69288983  0.25693287  0.36539929    -0.03200
Br1133     Br  0.65637038  0.24923293  0.33351804    -0.02900
H1134       H  0.70949622  0.31876803  0.35238285     0.09300
H1135       H  0.72791042  0.20831937  0.42498942     0.07300
Br1136     Br  0.77966211  0.27761003  0.44512841    -0.03300
C1137       C  0.80408479  0.04259899  0.38824141    -0.09900
C1138       C  0.77110923  0.01532073  0.39633965     0.06300
C1139       C  0.77927715  0.97181611  0.39635451    -0.03700
C1140       C  0.81860362  0.95691502  0.38721226    -0.08100
C1141       C  0.85065849  0.98432192  0.37801125     0.05400
C1142       C  0.84317803  0.02767466  0.37911743    -0.03200
Br1143     Br  0.88390076  0.06822963  0.36650529    -0.02900
H1144       H  0.79907814  0.07610153  0.38788615     0.09300
H1145       H  0.82419083  0.92349148  0.38740164     0.07300
Br1146     Br  0.73817671  0.93056132  0.40719468    -0.03300
C1147       C  0.66209899  0.16246589  0.24282156    -0.09900
C1148       C  0.68187609  0.16069434  0.26930342     0.06300
C1149       C  0.72544050  0.16906844  0.27059232    -0.03700
C1150       C  0.74934934  0.16728438  0.24581240    -0.08100
C1151       C  0.73020430  0.15850803  0.21971346     0.05400
C1152       C  0.68604959  0.16250272  0.21791079    -0.03200
Br1153     Br  0.65649329  0.16677624  0.18269212    -0.02900
H1154       H  0.62822551  0.15992599  0.24128546     0.09300
H1155       H  0.78326716  0.16867340  0.24752569     0.07300
Br1156     Br  0.75474365  0.17955301  0.30540943    -0.03300
C1157       C  0.41679439  0.00476943  0.25076853    -0.09900
C1158       C  0.43472602  0.02394519  0.22644102     0.06300
C1159       C  0.46159174  0.05828352  0.23073153    -0.03700
C1160       C  0.47115725  0.07128218  0.25847375    -0.08100
C1161       C  0.45578732  0.04990205  0.28280291     0.05400
C1162       C  0.42746091  0.01671253  0.27844848    -0.03200
Br1163     Br  0.40164675  0.98667953  0.30919663    -0.02900
H1164       H  0.39500167  0.97907944  0.24846209     0.09300
H1165       H  0.49220962  0.09762167  0.26082968     0.07300
Br1166     Br  0.48502060  0.08936373  0.19967921    -0.03300
C1167       C  0.69773967  0.22176084  0.09767300    -0.09900
C1168       C  0.73553209  0.22032033  0.11267765     0.06300
C1169       C  0.74687380  0.25370907  0.13036050    -0.03700
C1170       C  0.72109327  0.28856251  0.13206281    -0.08100
C1171       C  0.68345860  0.29098326  0.11659800     0.05400
C1172       C  0.67150259  0.25660754  0.09948700    -0.03200
Br1173     Br  0.62047046  0.25404955  0.07808088    -0.02900
H1174       H  0.68836809  0.19533092  0.08474661     0.09300
H1175       H  0.73034113  0.31360792  0.14621029     0.07300
Br1176     Br  0.79492160  0.25188932  0.15483481    -0.03300
C1177       C  0.76020314  0.54905738  0.11218637    -0.09900
C1178       C  0.75938409  0.50680772  0.10397836     0.06300
C1179       C  0.79640795  0.48293621  0.10704085    -0.03700
C1180       C  0.83263678  0.50124712  0.11824355    -0.08100
C1181       C  0.83352457  0.54336851  0.12698206     0.05400
C1182       C  0.79647268  0.56746748  0.12354495    -0.03200
Br1183     Br  0.79234908  0.62585183  0.13287492    -0.02900
H1184       H  0.73192725  0.56772393  0.11066732     0.09300
H1185       H  0.86047508  0.48203044  0.12010067     0.07300
Br1186     Br  0.80017266  0.42497414  0.09634362    -0.03300
C1187       C  0.72682321  0.37175396  0.23056096    -0.09900
C1188       C  0.68374490  0.37934741  0.23546448     0.06300
C1189       C  0.66909140  0.38031709  0.26376885    -0.03700
C1190       C  0.69806063  0.38106646  0.28573216    -0.08100
C1191       C  0.74167437  0.38202246  0.28033059     0.05400
C1192       C  0.75589603  0.37350462  0.25255342    -0.03200
Br1193     Br  0.81402122  0.36655280  0.24229380    -0.02900
H1194       H  0.73869670  0.36799988  0.20916200     0.09300
H1195       H  0.68597117  0.38467265  0.30709090     0.07300
Br1196     Br  0.61099854  0.38504125  0.27483027    -0.03300
C1197       C  0.46919361  0.64434819  0.10585813    -0.09900
C1198       C  0.50346179  0.64352667  0.12479172     0.06300
C1199       C  0.52122029  0.68237933  0.13301705    -0.03700
C1200       C  0.50500541  0.72000310  0.12229573    -0.08100
C1201       C  0.47038162  0.72046697  0.10399762     0.05400
C1202       C  0.45246989  0.68204824  0.09585994    -0.03200
Br1203     Br  0.40538029  0.67938979  0.07075799    -0.02900
H1204       H  0.45499002  0.61545232  0.09861873     0.09300
H1205       H  0.51791604  0.74936928  0.12978904     0.07300
Br1206     Br  0.56539357  0.68741285  0.16035145    -0.03300
C1207       C  0.22106104  0.71793568  0.40737719    -0.09900
C1208       C  0.25996576  0.73815986  0.40996868     0.06300
C1209       C  0.26115063  0.78183306  0.41432937    -0.03700
C1210       C  0.22413370  0.80477196  0.41300248    -0.08100
C1211       C  0.18555225  0.78503617  0.40761651     0.05400
C1212       C  0.18389373  0.74078158  0.40641464    -0.03200
Br1213     Br  0.13265368  0.70893184  0.40339769    -0.02900
H1214       H  0.21960148  0.68429847  0.40462192     0.09300
H1215       H  0.22603420  0.83851206  0.41483601     0.07300
Br1216     Br  0.31201138  0.81247025  0.42172807    -0.03300
C1217       C  0.60362940  0.51269628  0.39634738    -0.09900
C1218       C  0.60360147  0.55192889  0.38264026     0.06300
C1219       C  0.64184095  0.57485318  0.38165997    -0.03700
C1220       C  0.67808562  0.55853902  0.39430163    -0.08100
C1221       C  0.67771152  0.51939922  0.40781177     0.05400
C1222       C  0.63977428  0.49656395  0.40882192    -0.03200
Br1223     Br  0.63498327  0.44314028  0.42729614    -0.02900
H1224       H  0.57509141  0.49425465  0.39787010     0.09300
H1225       H  0.70735527  0.57573550  0.39229725     0.07300
Br1226     Br  0.64816741  0.62806250  0.36316492    -0.03300
C1227       C  0.52635390  0.85807524  0.38997670    -0.09900
C1228       C  0.49754204  0.88978281  0.38314417     0.06300
C1229       C  0.45502010  0.88421065  0.39116959    -0.03700
C1230       C  0.44207392  0.84684227  0.40401175    -0.08100
C1231       C  0.47042711  0.81397599  0.40935669     0.05400
C1232       C  0.51348285  0.82095716  0.40336160    -0.03200
Br1233     Br  0.55683530  0.78204160  0.41312909    -0.02900
H1234       H  0.55952602  0.86261391  0.38559189     0.09300
H1235       H  0.40894507  0.84285363  0.40874440     0.07300
Br1236     Br  0.41217616  0.92512754  0.38402063    -0.03300
C1237       C  0.32932152  0.78499569  0.28814701    -0.09900
C1238       C  0.33134561  0.74141679  0.28420519     0.06300
C1239       C  0.32487064  0.72526401  0.25671034    -0.03700
C1240       C  0.32560857  0.75241196  0.23365095    -0.08100
C1241       C  0.33261650  0.79551394  0.23735320     0.05400
C1242       C  0.32995387  0.81220670  0.26508803    -0.03200
Br1243     Br  0.33060908  0.87098708  0.27393797    -0.02900
H1244       H  0.33119383  0.79834250  0.30920039     0.09300
H1245       H  0.32416749  0.73905869  0.21258487     0.07300
Br1246     Br  0.31789133  0.66678510  0.24831713    -0.03300
C1247       C  0.44607106  0.46591833  0.24534664    -0.09900
C1248       C  0.46190664  0.49545650  0.22568942     0.06300
C1249       C  0.47196496  0.53588082  0.23575179    -0.03700
C1250       C  0.46711867  0.54541818  0.26458080    -0.08100
C1251       C  0.45121828  0.51600705  0.28400999     0.05400
C1252       C  0.44008091  0.47613794  0.27406259    -0.03200
Br1253     Br  0.41675985  0.43495198  0.29912187    -0.02900
H1254       H  0.43879024  0.43442823  0.23839815     0.09300
H1255       H  0.47483383  0.57662564  0.27179038     0.07300
Br1256     Br  0.49347626  0.57943822  0.21172381    -0.03300
C1257       C  0.98605905  0.52289777  0.48354408    -0.09900
C1258       C  0.95031882  0.49738665  0.48339710     0.06300
C1259       C  0.93983994  0.47475625  0.50831077    -0.03700
C1260       C  0.96479308  0.47867353  0.53270188    -0.08100
C1261       C  0.00041597  0.50465834  0.53270623     0.05400
C1262       C  0.01049012  0.52722606  0.50778597    -0.03200
Br1263     Br  0.05451466  0.56827189  0.50600040    -0.02900
H1264       H  0.99419142  0.54105687  0.46490841     0.09300
H1265       H  0.95667722  0.46100894  0.55155069     0.07300
Br1266     Br  0.89375234  0.43608510  0.50993457    -0.03300
C1267       C  0.96099834  0.47717274  0.99851390    -0.09900
C1268       C  0.97957367  0.49625523  0.97458538     0.06300
C1269       C  0.99632979  0.53686252  0.97753129    -0.03700
C1270       C  0.99486786  0.55688776  0.00404087    -0.08100
C1271       C  0.97631644  0.53755122  0.02799057     0.05400
C1272       C  0.95877721  0.49734988  0.02476700    -0.03200
Br1273     Br  0.92815966  0.46949742  0.05450350    -0.02900
H1274       H  0.94664778  0.44657849  0.99663993     0.09300
H1275       H  0.00875437  0.58774457  0.00595776     0.07300
Br1276     Br  0.02312503  0.56569096  0.94665275    -0.03300
C1277       C  0.94008897  0.53534659  0.72608932    -0.09900
C1278       C  0.97507524  0.56195293  0.72703931     0.06300
C1279       C  0.98669729  0.57783019  0.75434523    -0.03700
C1280       C  0.96791788  0.56212253  0.77924142    -0.08100
C1281       C  0.93612615  0.53187948  0.77835379     0.05400
C1282       C  0.91993132  0.52128768  0.75097423    -0.03200
Br1283     Br  0.87111708  0.48678624  0.74464490    -0.02900
H1284       H  0.92905980  0.52405360  0.70580709     0.09300
H1285       H  0.97986308  0.57228765  0.79955987     0.07300
Br1286     Br  0.02912620  0.61976349  0.76084345    -0.03300
C1287       C  0.45309810  0.50139241  0.48362508    -0.09900
C1288       C  0.47573980  0.53913654  0.48179637     0.06300
C1289       C  0.49707231  0.55368486  0.50607251    -0.03700
C1290       C  0.49428429  0.53139052  0.53140970    -0.08100
C1291       C  0.47171343  0.49367163  0.53328724     0.05400
C1292       C  0.45106939  0.47854712  0.50886000    -0.03200
Br1293     Br  0.41843803  0.42787243  0.50825098    -0.02900
H1294       H  0.43602791  0.48985998  0.46542080     0.09300
H1295       H  0.51170715  0.54283979  0.54948888     0.07300
Br1296     Br  0.53350828  0.60167484  0.50600219    -0.03300
C1297       C  0.31414557  0.54068508  0.59514304    -0.09900
C1298       C  0.28070720  0.51368862  0.58801325     0.06300
C1299       C  0.28642346  0.47034041  0.59297598    -0.03700
C1300       C  0.32305852  0.45582554  0.60637815    -0.08100
C1301       C  0.35501229  0.48331817  0.61545521     0.05400
C1302       C  0.35017756  0.52644585  0.60914449    -0.03200
Br1303     Br  0.38891170  0.56915114  0.62116733    -0.02900
H1304       H  0.31105755  0.57403628  0.59164403     0.09300
H1305       H  0.32629428  0.42251567  0.60992215     0.07300
Br1306     Br  0.24534429  0.42879685  0.58318078    -0.03300
C1307       C  0.47616523  0.48260031  0.97886504    -0.09900
C1308       C  0.44719794  0.51472347  0.97431202     0.06300
C1309       C  0.43843927  0.54304789  0.99659732    -0.03700
C1310       C  0.45870218  0.53888383  0.02282411    -0.08100
C1311       C  0.48834079  0.50711166  0.02717990     0.05400
C1312       C  0.49645605  0.47850127  0.00495119    -0.03200
Br1313     Br  0.53370747  0.43193006  0.00936036    -0.02900
H1314       H  0.48291556  0.46044427  0.96206779     0.09300
H1315       H  0.45239779  0.56138211  0.03948271     0.07300
Br1316     Br  0.40192245  0.59011788  0.99146879    -0.03300
C1317       C  0.24613793  0.67431691  0.76332523    -0.09900
C1318       C  0.28755182  0.66096560  0.75799440     0.06300
C1319       C  0.30213533  0.66027169  0.72974710    -0.03700
C1320       C  0.27278517  0.66190694  0.70798684    -0.08100
C1321       C  0.22939390  0.66309664  0.71421324     0.05400
C1322       C  0.21669500  0.67497755  0.74169580    -0.03200
Br1323     Br  0.15976009  0.68813261  0.75209075    -0.02900
H1324       H  0.23524034  0.67919078  0.78486903     0.09300
H1325       H  0.28381259  0.65682343  0.68650685     0.07300
Br1326     Br  0.35979110  0.65169115  0.71901259    -0.03300
C1327       C  0.14810385  0.54566464  0.88478743    -0.09900
C1328       C  0.18176140  0.52048203  0.89378200     0.06300
C1329       C  0.17421835  0.47706560  0.89700272    -0.03700
C1330       C  0.13492421  0.45983341  0.88972292    -0.08100
C1331       C  0.10232572  0.48476761  0.87888217     0.05400
C1332       C  0.10913915  0.52851195  0.87719693    -0.03200
Br1333     Br  0.06863523  0.56670483  0.86178547    -0.02900
H1334       H  0.15298400  0.57895497  0.88183186     0.09300
H1335       H  0.13020060  0.42641467  0.89196213     0.07300
Br1336     Br  0.21723316  0.43868125  0.90830301    -0.03300
C1337       C  0.49737648  0.57782476  0.75903976    -0.09900
C1338       C  0.51197988  0.55469682  0.78263274     0.06300
C1339       C  0.53917247  0.52095909  0.77687344    -0.03700
C1340       C  0.54815277  0.50950034  0.74867463    -0.08100
C1341       C  0.52963136  0.52970721  0.72517261     0.05400
C1342       C  0.50494937  0.56530108  0.73082823    -0.03200
Br1343     Br  0.48059542  0.59821505  0.70121539    -0.02900
H1344       H  0.47777679  0.60487820  0.76236484     0.09300
H1345       H  0.56835513  0.48287409  0.74531673     0.07300
Br1346     Br  0.56520590  0.48892162  0.80623618    -0.03300
C1347       C  0.73004528  0.30707188  0.61217046    -0.09900
C1348       C  0.69161581  0.28520691  0.61451876     0.06300
C1349       C  0.69250855  0.24102301  0.61442043    -0.03700
C1350       C  0.73106657  0.22018907  0.61499615    -0.08100
C1351       C  0.76941276  0.24226182  0.61497488     0.05400
C1352       C  0.76855563  0.28614765  0.61200619    -0.03200
Br1353     Br  0.81836203  0.31938012  0.60628222    -0.02900
H1354       H  0.73045486  0.34091537  0.61102128     0.09300
H1355       H  0.73087728  0.18633705  0.61613638     0.07300
Br1356     Br  0.64290802  0.20674398  0.61249017    -0.03300
C1357       C  0.96650495  0.00679846  0.52896133    -0.09900
C1358       C  0.99317766  0.04156151  0.53213689     0.06300
C1359       C  0.01835207  0.05363739  0.50872283    -0.03700
C1360       C  0.01598037  0.03140331  0.48296216    -0.08100
C1361       C  0.98896403  0.99671277  0.47977949     0.05400
C1362       C  0.96410406  0.98461550  0.50341149    -0.03200
Br1363     Br  0.92397182  0.93972578  0.50222846    -0.02900
H1364       H  0.94612231  0.99744153  0.54632387     0.09300
H1365       H  0.03620957  0.04070280  0.46552021     0.07300
Br1366     Br  0.05848615  0.09836527  0.51119723    -0.03300
C1367       C  0.04466980  0.35847526  0.61403784    -0.09900
C1368       C  0.01874481  0.39165456  0.62310526     0.06300
C1369       C  0.97466130  0.38681280  0.61979231    -0.03700
C1370       C  0.95807976  0.34945139  0.60896105    -0.08100
C1371       C  0.98381482  0.31533664  0.60151812     0.05400
C1372       C  0.02789628  0.32088688  0.60338213    -0.03200
Br1373     Br  0.06751412  0.27800966  0.59354381    -0.02900
H1374       H  0.07851632  0.36151709  0.61539423     0.09300
H1375       H  0.92420335  0.34627804  0.60785785     0.07300
Br1376     Br  0.93391729  0.42803013  0.63116483    -0.03300
C1377       C  0.82966602  0.21577271  0.75990281    -0.09900
C1378       C  0.83396218  0.23359419  0.73291295     0.06300
C1379       C  0.82550765  0.27673635  0.72962814    -0.03700
C1380       C  0.82484112  0.30234254  0.75349778    -0.08100
C1381       C  0.83101668  0.28519736  0.78050552     0.05400
C1382       C  0.82748124  0.24128355  0.78380406    -0.03200
Br1383     Br  0.82348632  0.21369014  0.81993613    -0.02900
H1384       H  0.83239934  0.18226796  0.76279671     0.09300
H1385       H  0.82376430  0.33592460  0.75052646     0.07300
Br1386     Br  0.81827571  0.30338068  0.69343495    -0.03300
C1387       C  0.21291809  0.72751199  0.87709784    -0.09900
C1388       C  0.25584853  0.73122454  0.87047834     0.06300
C1389       C  0.27233491  0.77158653  0.86517330    -0.03700
C1390       C  0.24630586  0.80678698  0.86696013    -0.08100
C1391       C  0.20317292  0.80336421  0.87352244     0.05400
C1392       C  0.18668393  0.76268741  0.87888362    -0.03200
Br1393     Br  0.12893639  0.75136469  0.88851897    -0.02900
H1394       H  0.19959500  0.69684979  0.88119916     0.09300
H1395       H  0.26007313  0.83713950  0.86254749     0.07300
Br1396     Br  0.32907484  0.78102720  0.85264900    -0.03300
C1397       C  0.98632568  0.99445033  0.02706333    -0.09900
C1398       C  0.95080207  0.02019619  0.02885799     0.06300
C1399       C  0.93945898  0.04382201  0.00470139    -0.03700
C1400       C  0.96241322  0.04013237  0.97933501    -0.08100
C1401       C  0.99761855  0.01391355  0.97737417     0.05400
C1402       C  0.00960132  0.99111992  0.00175275    -0.03200
Br1403     Br  0.05538390  0.95227041  0.00142225    -0.02900
H1404       H  0.99529403  0.97578703  0.04518558     0.09300
H1405       H  0.95300149  0.05836053  0.96110479     0.07300
Br1406     Br  0.89442996  0.08372009  0.00541785    -0.03300
C1407       C  0.91611203  0.01968250  0.74813137    -0.09900
C1408       C  0.93846534  0.00184688  0.72504070     0.06300
C1409       C  0.96697651  0.96957525  0.73121871    -0.03700
C1410       C  0.97369735  0.95751884  0.75950774    -0.08100
C1411       C  0.95417179  0.97790847  0.78276944     0.05400
C1412       C  0.92388791  0.00852206  0.77648463    -0.03200
Br1413     Br  0.89095224  0.03523033  0.80541661    -0.02900
H1414       H  0.89301460  0.04368735  0.74433749     0.09300
H1415       H  0.99611131  0.93297453  0.76318978     0.07300
Br1416     Br  0.99756597  0.94035414  0.70220062    -0.03300
C1417       C  0.96615617  0.14601425  0.90505264    -0.09900
C1418       C  0.00720926  0.14399892  0.89355601     0.06300
C1419       C  0.03262727  0.18059019  0.89586513    -0.03700
C1420       C  0.01588620  0.21790014  0.90680357    -0.08100
C1421       C  0.97392272  0.22064553  0.91576610     0.05400
C1422       C  0.94956576  0.18359437  0.91594643    -0.03200
Br1423     Br  0.89313251  0.18286250  0.93064208    -0.02900
H1424       H  0.94619119  0.11851636  0.90493107     0.09300
H1425       H  0.03521032  0.24587789  0.90638624     0.07300
Br1426     Br  0.09038082  0.18394410  0.88423158    -0.03300
C1427       C  0.27573334  0.77450761  0.60467551    -0.09900
C1428       C  0.25135591  0.81102258  0.60301407     0.06300
C1429       C  0.20757996  0.80731402  0.59980987    -0.03700
C1430       C  0.18909522  0.76769569  0.59935439    -0.08100
C1431       C  0.21318543  0.73102079  0.60263143     0.05400
C1432       C  0.25737614  0.73488515  0.60470661    -0.03200
Br1433     Br  0.29547636  0.68853697  0.60833710    -0.02900
H1434       H  0.30948812  0.77666992  0.60723218     0.09300
H1435       H  0.15522835  0.76593216  0.59745515     0.07300
Br1436     Br  0.17105817  0.85463187  0.59597418    -0.03300
C1437       C  0.47654553  0.05889800  0.48768959    -0.09900
C1438       C  0.50450403  0.02633188  0.48104018     0.06300
C1439       C  0.51437563  0.99697012  0.50236415    -0.03700
C1440       C  0.49504625  0.99963600  0.52914006    -0.08100
C1441       C  0.46599985  0.03146107  0.53542015     0.05400
C1442       C  0.45770129  0.06184138  0.51455682    -0.03200
Br1443     Br  0.42222711  0.10904015  0.52218605    -0.02900
H1444       H  0.46986935  0.08269853  0.47203256     0.09300
H1445       H  0.50132138  0.97556041  0.54469046     0.07300
Br1446     Br  0.55163014  0.95084172  0.49559344    -0.03300
C1447       C  0.11358298  0.02225223  0.60340229    -0.09900
C1448       C  0.11375244  0.05817306  0.62086801     0.06300
C1449       C  0.15221205  0.08039461  0.62366896    -0.03700
C1450       C  0.18848302  0.06643145  0.60956451    -0.08100
C1451       C  0.18842929  0.02948424  0.59346370     0.05400
C1452       C  0.15025421  0.00791985  0.58997812    -0.03200
Br1453     Br  0.14667583  0.95921007  0.56636950    -0.02900
H1454       H  0.08472091  0.00498702  0.59998423     0.09300
H1455       H  0.21764878  0.08322420  0.61285154     0.07300
Br1456     Br  0.15955911  0.12796621  0.64804167    -0.03300
C1457       C  0.22478706  0.86777710  0.76981215    -0.09900
C1458       C  0.18278825  0.87907048  0.76472183     0.06300
C1459       C  0.16749623  0.87663676  0.73678288    -0.03700
C1460       C  0.19627285  0.87416482  0.71454922    -0.08100
C1461       C  0.23966695  0.87442498  0.71997576     0.05400
C1462       C  0.25338803  0.86487812  0.74755086    -0.03200
Br1463     Br  0.31048133  0.85107392  0.75677592    -0.02900
H1464       H  0.23641778  0.86509554  0.79126279     0.09300
H1465       H  0.18469653  0.87737798  0.69313187     0.07300
Br1466     Br  0.10929323  0.88143582  0.72673278    -0.03300
C1467       C  0.47615441  0.14720384  0.60611879    -0.09900
C1468       C  0.43818590  0.14853035  0.62174988     0.06300
C1469       C  0.41602041  0.18704619  0.62259353    -0.03700
C1470       C  0.43303284  0.22274277  0.60955873    -0.08100
C1471       C  0.47253765  0.22187176  0.59621294     0.05400
C1472       C  0.49323314  0.18327097  0.59356196    -0.03200
Br1473     Br  0.54480816  0.17868635  0.57263530    -0.02900
H1474       H  0.49305429  0.11803172  0.60374722     0.09300
H1475       H  0.41689408  0.25232342  0.61216044     0.07300
Br1476     Br  0.36455322  0.19548672  0.64329916    -0.03300
C1477       C  0.68353094  0.28361260  0.88998115    -0.09900
C1478       C  0.68463688  0.24135734  0.89814655     0.06300
C1479       C  0.72348302  0.22455103  0.90739949    -0.03700
C1480       C  0.76005206  0.24899317  0.90587609    -0.08100
C1481       C  0.75888866  0.29047528  0.89623929     0.05400
C1482       C  0.71975447  0.30806919  0.88900580    -0.03200
Br1483     Br  0.71296207  0.36415476  0.87528612    -0.02900
H1484       H  0.65432544  0.29783553  0.88339680     0.09300
H1485       H  0.78972332  0.23541014  0.91220462     0.07300
Br1486     Br  0.73016098  0.16904061  0.92236318    -0.03300
C1487       C  0.45891434  0.05606437  0.99856824    -0.09900
C1488       C  0.45949510  0.03336491  0.97290928     0.06300
C1489       C  0.45851096  0.98915648  0.97476423    -0.03700
C1490       C  0.45803724  0.96935492  0.00136680    -0.08100
C1491       C  0.45762078  0.99207744  0.02707234     0.05400
C1492       C  0.45774020  0.03635546  0.02513926    -0.03200
Br1493     Br  0.45638132  0.07314782  0.05731885    -0.02900
H1494       H  0.45995311  0.08992962  0.99820693     0.09300
H1495       H  0.45735703  0.93548674  0.00173932     0.07300
Br1496     Br  0.45601896  0.95306444  0.94229154    -0.03300
C1497       C  0.31349937  0.07130539  0.88482049    -0.09900
C1498       C  0.34644344  0.04399609  0.87737749     0.06300
C1499       C  0.34038172  0.00062427  0.88216422    -0.03700
C1500       C  0.30225446  0.98591672  0.89341018    -0.08100
C1501       C  0.26857207  0.01296574  0.89964922     0.05400
C1502       C  0.27506128  0.05641451  0.89571772    -0.03200
Br1503     Br  0.23237687  0.09739000  0.90286068    -0.02900
H1504       H  0.31750304  0.10473508  0.88208817     0.09300
H1505       H  0.29811245  0.95243668  0.89580877     0.07300
Br1506     Br  0.38081384  0.95863229  0.87170820    -0.03300
C1507       C  0.62663051  0.30858137  0.75799573    -0.09900
C1508       C  0.62097066  0.29062579  0.73113613     0.06300
C1509       C  0.62822823  0.24728075  0.72793705    -0.03700
C1510       C  0.62786522  0.22190053  0.75187896    -0.08100
C1511       C  0.62249131  0.23959094  0.77886249     0.05400
C1512       C  0.62846943  0.28317780  0.78194488    -0.03200
Br1513     Br  0.63670723  0.31004279  0.81789133    -0.02900
H1514       H  0.62572194  0.34221109  0.76079220     0.09300
H1515       H  0.62769086  0.18826647  0.74903196     0.07300
Br1516     Br  0.63616727  0.22033666  0.69192138    -0.03300
C1517       C  0.41986812  0.36049051  0.89682461    -0.09900
C1518       C  0.44924999  0.39002741  0.88659502     0.06300
C1519       C  0.49235281  0.38042491  0.88900252    -0.03700
C1520       C  0.50493088  0.34189646  0.90027188    -0.08100
C1521       C  0.47570294  0.31077133  0.90863368     0.05400
C1522       C  0.43248370  0.32136886  0.90766563    -0.03200
Br1523     Br  0.38859710  0.28369359  0.91923749    -0.02900
H1524       H  0.38661744  0.36759305  0.89597414     0.09300
H1525       H  0.53830674  0.33533081  0.90066105     0.07300
Br1526     Br  0.53599204  0.41613143  0.87422998    -0.03300
C1527       C  0.49676338  0.96222179  0.77904196    -0.09900
C1528       C  0.52449132  0.99629050  0.77980843     0.06300
C1529       C  0.54089956  0.01082775  0.75330332    -0.03700
C1530       C  0.52354355  0.99710699  0.72767667    -0.08100
C1531       C  0.49216078  0.96651018  0.72708071     0.05400
C1532       C  0.48218816  0.94599152  0.75319964    -0.03200
Br1533     Br  0.44916251  0.89558879  0.75605610    -0.02900
H1534       H  0.48568034  0.94849656  0.79870013     0.09300
H1535       H  0.53359839  0.01185348  0.70811312     0.07300
Br1536     Br  0.58600605  0.05028174  0.74897351    -0.03300
loop_ 
_geom_bond_atom_site_label_1 
_geom_bond_atom_site_label_2 
_geom_bond_distance 
_geom_bond_site_symmetry_2 
_ccdc_geom_bond_type 
Zr1           O2   2.436   1_545  S
Zr1           O3   2.424       .  S
Zr1           O4   2.478       .  S
Zr1           O7   2.520       .  S
Zr1           O9   2.393       .  S
Zr1          O10   2.396       .  S
Zr1          O11   2.425       .  S
Zr1          O12   2.406       .  S
O2           H58   0.990       .  S
O2           H66   0.990       .  S
O3           C23   1.282       .  A
O4           C25   1.296       .  A
O5          Zr15   2.399       .  S
O5           C24   1.272       .  A
O6          Zr14   2.452       .  S
O6           C25   1.293       .  A
O7           C24   1.302       .  A
O8          Zr16   2.470       .  S
O8           C23   1.292       .  A
O9          Zr14   2.392       .  S
O9          Zr16   2.356       .  S
O10         Zr15   2.401       .  S
O10         Zr16   2.356       .  S
O10          H45   0.964       .  S
O11         Zr14   2.423       .  S
O11         Zr31   2.357       .  S
O11          H48   0.963       .  S
O12         Zr15   2.399       .  S
O12         Zr31   2.398       .  S
Zr13         O38   2.438       .  S
Zr13         O32   2.424       .  S
Zr13         O40   2.407       .  S
Zr13         O28   2.406       .  S
Zr13         O19   2.399       .  S
Zr13         O20   2.402       .  S
Zr13         O21   2.374       .  S
Zr13         O22   2.363       .  S
Zr14         O33   2.434       .  S
Zr14         O26   2.437       .  S
Zr14         O27   2.504       .  S
Zr14         O20   2.399       .  S
Zr14         O21   2.391       .  S
Zr15         O17   2.434       .  S
Zr15         O39   2.439       .  S
Zr15         O41   2.424       .  S
Zr15         O19   2.376       .  S
Zr15         O22   2.366       .  S
Zr16         O42   2.437       .  S
Zr16         O43   2.436       .  S
Zr16         O18   2.436       .  S
Zr16         O19   2.422       .  S
Zr16         O20   2.377       .  S
O17          H54   0.990       .  S
O18          H49   0.990       .  S
O18          H63   0.990       .  S
O20          H46   0.964       .  S
O21         Zr31   2.391       .  S
O22         Zr31   2.360       .  S
O22          H47   0.965       .  S
C23        C1498   1.498       .  S
C24        C1528   1.508   1_545  S
C25        C1488   1.508       .  S
O26          H62   0.990       .  S
O27          C29   1.294       .  A
O28          C29   1.275       .  A
C29        C1521   1.511       .  S
O30         Zr31   2.440       .  S
O30          H59   0.990       .  S
Zr31         O34   2.436       .  S
Zr31         O35   2.439       .  S
Zr31         O36   2.417       .  S
O32          C37   1.285       .  A
O33          H50   0.990       .  S
O33          H65   0.990       .  S
O34          H51   0.990       .  S
O35          H55   0.990       .  S
O35          H64   0.990       .  S
O36          C37   1.279       .  A
C37        C1478   1.489       .  S
O38          H57   0.990       .  S
O38          H61   0.990       .  S
O39          H53   0.990       .  S
O39          H60   0.989       .  S
O40          C44   1.279       .  A
O41          C44   1.284       .  A
O42          H52   0.990       .  S
O43          H56   0.990       .  S
C44        C1511   1.478       .  S
Zr67         O68   2.436   1_545  S
Zr67         O69   2.458       .  S
Zr67         O70   2.472       .  S
Zr67         O73   2.524   1_545  S
Zr67         O75   2.380       .  S
Zr67         O76   2.390       .  S
Zr67         O77   2.430   1_545  S
Zr67         O78   2.409   1_545  S
O68         H124   0.990   1_565  S
O68         H132   0.990       .  S
O69          C89   1.289       .  A
O70          C91   1.295       .  A
O71         Zr81   2.373       .  S
O71          C90   1.270       .  A
O72         Zr80   2.446       .  S
O72          C91   1.290       .  A
O73          C90   1.305       .  A
O74         Zr82   2.453       .  S
O74          C89   1.287       .  A
O75         Zr80   2.379       .  S
O75         Zr82   2.356       .  S
O76         Zr81   2.396   1_545  S
O76         Zr82   2.356       .  S
O76         H111   0.963       .  S
O77         Zr80   2.418   1_565  S
O77         Zr97   2.353       .  S
O77         H114   0.963       .  S
O78         Zr81   2.399       .  S
O78         Zr97   2.403       .  S
Zr79        O104   2.442       .  S
Zr79         O98   2.426       .  S
Zr79        O106   2.405       .  S
Zr79         O94   2.423       .  S
Zr79         O85   2.415       .  S
Zr79         O86   2.400   1_565  S
Zr79         O87   2.379       .  S
Zr79         O88   2.366       .  S
Zr80         O99   2.432   1_545  S
Zr80         O92   2.435       .  S
Zr80         O93   2.458       .  S
Zr80         O86   2.418       .  S
Zr80         O87   2.392   1_545  S
Zr81         O83   2.432       .  S
Zr81        O105   2.440       .  S
Zr81        O107   2.412       .  S
Zr81         O85   2.384       .  S
Zr81         O88   2.363       .  S
Zr82        O108   2.439       .  S
Zr82        O109   2.438       .  S
Zr82         O84   2.439       .  S
Zr82         O85   2.423   1_545  S
Zr82         O86   2.373       .  S
O83         H120   0.989       .  S
O84         H115   0.990       .  S
O84         H129   0.990       .  S
O86         H112   0.961       .  S
O87         Zr97   2.387       .  S
O88         Zr97   2.356       .  S
O88         H113   0.966       .  S
C89        C1468   1.500       .  S
C90        C1531   1.505       .  S
C91        C1441   1.486       .  S
O92         H128   0.990       .  S
O93          C95   1.286       .  A
O94          C95   1.276   1_565  A
C95        C1451   1.483       .  S
O96         Zr97   2.437       .  S
O96         H125   0.990       .  S
Zr97        O100   2.438       .  S
Zr97        O101   2.439       .  S
Zr97        O102   2.403       .  S
O98         C103   1.283       .  A
O99         H116   0.990   1_565  S
O99         H131   0.990       .  S
O100        H117   0.990       .  S
O101        H121   0.990       .  S
O101        H130   0.990       .  S
O102        C103   1.279       .  A
C103       C1428   1.474       .  S
O104        H123   0.991       .  S
O104        H127   0.990       .  S
O105        H119   0.990       .  S
O105        H126   0.990       .  S
O106        C110   1.280       .  A
O107        C110   1.280       .  A
O108        H118   0.990       .  S
O109        H122   0.990       .  S
C110       C1461   1.473       .  S
Zr133       O134   2.437   1_455  S
Zr133       O135   2.463   1_465  S
Zr133       O136   2.465   1_465  S
Zr133       O139   2.513   1_455  S
Zr133       O141   2.385   1_565  S
Zr133       O142   2.410   1_565  S
Zr133       O143   2.438       .  S
Zr133       O144   2.429       .  S
O134        H190   0.990       .  S
O134        H198   0.990       .  S
O135        C155   1.291   1_655  A
O136        C157   1.294   1_655  A
O137       Zr147   2.400   1_655  S
O137        C156   1.269       .  A
O138       Zr146   2.460   1_545  S
O138        C157   1.292       .  A
O139        C156   1.294       .  A
O140       Zr148   2.462       .  S
O140        C155   1.289       .  A
O141       Zr146   2.390   1_545  S
O141       Zr148   2.363       .  S
O142       Zr147   2.407   1_545  S
O142       Zr148   2.348       .  S
O142        H177   0.965       .  S
O143       Zr146   2.422       .  S
O143       Zr163   2.383       .  S
O143        H180   0.964       .  S
O144       Zr147   2.406       .  S
O144       Zr163   2.408       .  S
Zr145       O170   2.442       .  S
Zr145       O164   2.440       .  S
Zr145       O172   2.395       .  S
Zr145       O160   2.410       .  S
Zr145       O151   2.405       .  S
Zr145       O152   2.403   1_565  S
Zr145       O153   2.376       .  S
Zr145       O154   2.365       .  S
Zr146       O165   2.431       .  S
Zr146       O158   2.434   1_565  S
Zr146       O159   2.484   1_565  S
Zr146       O152   2.411   1_565  S
Zr146       O153   2.390       .  S
Zr147       O149   2.439       .  S
Zr147       O171   2.437       .  S
Zr147       O173   2.425       .  S
Zr147       O151   2.384       .  S
Zr147       O154   2.374       .  S
Zr148       O174   2.439       .  S
Zr148       O175   2.436       .  S
Zr148       O150   2.432       .  S
Zr148       O151   2.417   1_545  S
Zr148       O152   2.376       .  S
O149        H186   0.990       .  S
O150        H181   0.990       .  S
O150        H195   0.989       .  S
O152        H178   0.963       .  S
O153       Zr163   2.383       .  S
O154       Zr163   2.346       .  S
O154        H179   0.964       .  S
C155       C1418   1.513       .  S
C156       C1411   1.513       .  S
C157       C1401   1.493   1_455  S
O158        H194   0.990       .  S
O159        C161   1.292   1_545  A
O160        C161   1.277       .  A
C161       C1501   1.496   1_565  S
O162       Zr163   2.436       .  S
O162        H191   0.990       .  S
Zr163       O166   2.437       .  S
Zr163       O167   2.441       .  S
Zr163       O168   2.439       .  S
O164        C169   1.287       .  A
O165        H182   0.990       .  S
O165        H197   0.989       .  S
O166        H183   0.990       .  S
O167        H187   0.990       .  S
O167        H196   0.989       .  S
O168        C169   1.282       .  A
C169       C1391   1.503       .  S
O170        H189   0.990       .  S
O170        H193   0.990   1_565  S
O171        H185   0.990   1_565  S
O171        H192   0.990       .  S
O172        C176   1.280       .  A
O173        C176   1.281       .  A
O174        H184   0.990       .  S
O175        H188   0.990       .  S
C176       C1458   1.472       .  S
Zr199       O200   2.435   1_545  S
Zr199       O201   2.438   1_655  S
Zr199       O202   2.465       .  S
Zr199       O205   2.508       .  S
Zr199       O207   2.391   1_655  S
Zr199       O208   2.404       .  S
Zr199       O209   2.427       .  S
Zr199       O210   2.411       .  S
O200        H256   0.990       .  S
O200        H264   0.990       .  S
O201        C221   1.286       .  A
O202        C223   1.295       .  A
O203       Zr213   2.401       .  S
O203        C222   1.271       .  A
O204       Zr212   2.464       .  S
O204        C223   1.293       .  A
O205        C222   1.295       .  A
O206       Zr214   2.461       .  S
O206        C221   1.288       .  A
O207       Zr212   2.396   1_455  S
O207       Zr214   2.365       .  S
O208       Zr213   2.406       .  S
O208       Zr214   2.351   1_655  S
O208        H243   0.964       .  S
O209       Zr212   2.418       .  S
O209       Zr229   2.369       .  S
O209        H246   0.963       .  S
O210       Zr213   2.398       .  S
O210       Zr229   2.401       .  S
Zr211       O236   2.439       .  S
Zr211       O230   2.436       .  S
Zr211       O238   2.398       .  S
Zr211       O226   2.409       .  S
Zr211       O217   2.404       .  S
Zr211       O218   2.398       .  S
Zr211       O219   2.371       .  S
Zr211       O220   2.368       .  S
Zr212       O231   2.434       .  S
Zr212       O224   2.432   1_655  S
Zr212       O225   2.486       .  S
Zr212       O218   2.405       .  S
Zr212       O219   2.384       .  S
Zr213       O215   2.437       .  S
Zr213       O237   2.437       .  S
Zr213       O239   2.430       .  S
Zr213       O217   2.389       .  S
Zr213       O220   2.375       .  S
Zr214       O240   2.440       .  S
Zr214       O241   2.438       .  S
Zr214       O216   2.438       .  S
Zr214       O217   2.421   1_455  S
Zr214       O218   2.373   1_455  S
O215        H252   0.990       .  S
O216        H247   0.990       .  S
O216        H261   0.990       .  S
O218        H244   0.963       .  S
O219       Zr229   2.385       .  S
O220       Zr229   2.357       .  S
O220        H245   0.965       .  S
C221       C1448   1.502       .  S
C222       C1408   1.510       .  S
C223       C1358   1.496       .  S
O224        H260   0.990       .  S
O225        C227   1.293       .  A
O226        C227   1.279       .  A
C227       C1371   1.499       .  S
O228       Zr229   2.438       .  S
O228        H257   0.991       .  S
Zr229       O232   2.437       .  S
Zr229       O233   2.440       .  S
Zr229       O234   2.416       .  S
O230        C235   1.285       .  A
O231        H248   0.990       .  S
O231        H263   0.990       .  S
O232        H249   0.990       .  S
O233        H253   0.990       .  S
O233        H262   0.990       .  S
O234        C235   1.281       .  A
C235       C1351   1.483       .  S
O236        H255   0.990       .  S
O236        H259   0.990       .  S
O237        H251   0.990       .  S
O237        H258   0.990       .  S
O238        C242   1.277       .  A
O239        C242   1.284       .  A
O240        H250   0.990       .  S
O241        H254   0.990       .  S
C242       C1378   1.475       .  S
Zr265       O266   2.436       .  S
Zr265       O267   2.442       .  S
Zr265       O268   2.459       .  S
Zr265       O271   2.513       .  S
Zr265       O273   2.388       .  S
Zr265       O274   2.404       .  S
Zr265       O275   2.432       .  S
Zr265       O276   2.416       .  S
O266        H322   0.990       .  S
O266        H330   0.990       .  S
O267        C287   1.286       .  A
O268        C289   1.293       .  A
O269       Zr279   2.405       .  S
O269        C288   1.270       .  A
O270       Zr278   2.453       .  S
O270        C289   1.290       .  A
O271        C288   1.295       .  A
O272       Zr280   2.470       .  S
O272        C287   1.291       .  A
O273       Zr278   2.393       .  S
O273       Zr280   2.360       .  S
O274       Zr279   2.407       .  S
O274       Zr280   2.350       .  S
O274        H309   0.964       .  S
O275       Zr278   2.422       .  S
O275       Zr295   2.372       .  S
O275        H312   0.963       .  S
O276       Zr279   2.400       .  S
O276       Zr295   2.407       .  S
Zr277       O302   2.440       .  S
Zr277       O296   2.444       .  S
Zr277       O304   2.404       .  S
Zr277       O292   2.409       .  S
Zr277       O283   2.402       .  S
Zr277       O284   2.406       .  S
Zr277       O285   2.375       .  S
Zr277       O286   2.371       .  S
Zr278       O297   2.435       .  S
Zr278       O290   2.434       .  S
Zr278       O291   2.496       .  S
Zr278       O284   2.395       .  S
Zr278       O285   2.390       .  S
Zr279       O281   2.440       .  S
Zr279       O303   2.435       .  S
Zr279       O305   2.428       .  S
Zr279       O283   2.391       .  S
Zr279       O286   2.379       .  S
Zr280       O306   2.441       .  S
Zr280       O307   2.435       .  S
Zr280       O282   2.437       .  S
Zr280       O283   2.425       .  S
Zr280       O284   2.382       .  S
O281        H318   0.990       .  S
O282        H313   0.991       .  S
O282        H327   0.990       .  S
O284        H310   0.963       .  S
O285       Zr295   2.389       .  S
O286       Zr295   2.358       .  S
O286        H311   0.965       .  S
C287       C1518   1.500       .  S
C288       C1338   1.515       .  S
C289       C1308   1.482       .  S
O290        H326   0.990       .  S
O291        C293   1.297       .  A
O292        C293   1.282       .  A
C293       C1328   1.499       .  S
O294       Zr295   2.441       .  S
O294        H323   0.991       .  S
Zr295       O298   2.437       .  S
Zr295       O299   2.438       .  S
Zr295       O300   2.440       .  S
O296        C301   1.287       .  A
O297        H314   0.990       .  S
O297        H329   0.988       .  S
O298        H315   0.990       .  S
O299        H319   0.990       .  S
O299        H328   0.990       .  S
O300        C301   1.285       .  A
C301       C1388   1.492       .  S
O302        H321   0.990       .  S
O302        H325   0.990       .  S
O303        H317   0.990       .  S
O303        H324   0.989       .  S
O304        C308   1.281       .  A
O305        C308   1.281       .  A
O306        H316   0.990       .  S
O307        H320   0.990       .  S
C308       C1318   1.476       .  S
Zr331       O332   2.435       .  S
Zr331       O333   2.431       .  S
Zr331       O334   2.447       .  S
Zr331       O337   2.511       .  S
Zr331       O339   2.387       .  S
Zr331       O340   2.398       .  S
Zr331       O341   2.426       .  S
Zr331       O342   2.406       .  S
O332        H388   0.990       .  S
O332        H396   0.990       .  S
O333        C353   1.283       .  A
O334        C355   1.292       .  A
O335       Zr345   2.407       .  S
O335        C354   1.273       .  A
O336       Zr344   2.425       .  S
O336        C355   1.284       .  A
O337        C354   1.296       .  A
O338       Zr346   2.483       .  S
O338        C353   1.294       .  A
O339       Zr344   2.388       .  S
O339       Zr346   2.350       .  S
O340       Zr345   2.407       .  S
O340       Zr346   2.359       .  S
O340        H375   0.964       .  S
O341       Zr344   2.421       .  S
O341       Zr361   2.367       .  S
O341        H378   0.965       .  S
O342       Zr345   2.398       .  S
O342       Zr361   2.397       .  S
Zr343       O368   2.441       .  S
Zr343       O362   2.441       .  S
Zr343       O370   2.404       .  S
Zr343       O358   2.428       .  S
Zr343       O349   2.414       .  S
Zr343       O350   2.400       .  S
Zr343       O351   2.373       .  S
Zr343       O352   2.370       .  S
Zr344       O363   2.435       .  S
Zr344       O356   2.434       .  S
Zr344       O357   2.466       .  S
Zr344       O350   2.401       .  S
Zr344       O351   2.384       .  S
Zr345       O347   2.440       .  S
Zr345       O369   2.438       .  S
Zr345       O371   2.430       .  S
Zr345       O349   2.391       .  S
Zr345       O352   2.379       .  S
Zr346       O372   2.437       .  S
Zr346       O373   2.435       .  S
Zr346       O348   2.438       .  S
Zr346       O349   2.431       .  S
Zr346       O350   2.376       .  S
O347        H384   0.990       .  S
O348        H379   0.990       .  S
O348        H393   0.990       .  S
O350        H376   0.963       .  S
O351       Zr361   2.388       .  S
O352       Zr361   2.361       .  S
O352        H377   0.965       .  S
C353       C1301   1.508       .  S
C354       C1341   1.512       .  S
C355       C1291   1.481       .  S
O356        H392   0.990       .  S
O357        C359   1.289       .  A
O358        C359   1.279       .  A
C359       C1471   1.482       .  S
O360       Zr361   2.438       .  S
O360        H389   0.990       .  S
Zr361       O364   2.436       .  S
Zr361       O365   2.439       .  S
Zr361       O366   2.408       .  S
O362        C367   1.285       .  A
O363        H380   0.990       .  S
O363        H395   0.990       .  S
O364        H381   0.990       .  S
O365        H385   0.990       .  S
O365        H394   0.990       .  S
O366        C367   1.280       .  A
C367       C1348   1.487       .  S
O368        H387   0.990       .  S
O368        H391   0.990       .  S
O369        H383   0.990       .  S
O369        H390   0.990       .  S
O370        C374   1.279       .  A
O371        C374   1.284       .  A
O372        H382   0.990       .  S
O373        H386   0.991       .  S
C374       C1508   1.478       .  S
Zr397       O398   2.438       .  S
Zr397       O399   2.426   1_655  S
Zr397       O400   2.483       .  S
Zr397       O403   2.540       .  S
Zr397       O405   2.395       .  S
Zr397       O406   2.386       .  S
Zr397       O407   2.430       .  S
Zr397       O408   2.409       .  S
O398        H454   0.990       .  S
O398        H462   0.990       .  S
O399        C419   1.282       .  A
O400        C421   1.297       .  A
O401       Zr411   2.381       .  S
O401        C420   1.271       .  A
O402       Zr410   2.437       .  S
O402        C421   1.289       .  A
O403        C420   1.308       .  A
O404       Zr412   2.479       .  S
O404        C419   1.293       .  A
O405       Zr410   2.395       .  S
O405       Zr412   2.357   1_655  S
O406       Zr411   2.403       .  S
O406       Zr412   2.350   1_655  S
O406        H441   0.964       .  S
O407       Zr410   2.418       .  S
O407       Zr427   2.359       .  S
O407        H444   0.963       .  S
O408       Zr411   2.397       .  S
O408       Zr427   2.400       .  S
Zr409       O434   2.442       .  S
Zr409       O428   2.440       .  S
Zr409       O436   2.401       .  S
Zr409       O424   2.417       .  S
Zr409       O415   2.404       .  S
Zr409       O416   2.405       .  S
Zr409       O417   2.371       .  S
Zr409       O418   2.370       .  S
Zr410       O429   2.435       .  S
Zr410       O422   2.435   1_655  S
Zr410       O423   2.484       .  S
Zr410       O416   2.399       .  S
Zr410       O417   2.383       .  S
Zr411       O413   2.437       .  S
Zr411       O435   2.437       .  S
Zr411       O437   2.433       .  S
Zr411       O415   2.381       .  S
Zr411       O418   2.366       .  S
Zr412       O438   2.439       .  S
Zr412       O439   2.434       .  S
Zr412       O414   2.437       .  S
Zr412       O415   2.422   1_455  S
Zr412       O416   2.381   1_455  S
O413        H450   0.990       .  S
O414        H445   0.990       .  S
O414        H459   0.990       .  S
O416        H442   0.964       .  S
O417       Zr427   2.389       .  S
O418       Zr427   2.357       .  S
O418        H443   0.966       .  S
C419       C1331   1.499       .  S
C420       C1281   1.514       .  S
C421       C1268   1.491       .  S
O422        H458   0.990       .  S
O423        C425   1.293       .  A
O424        C425   1.276       .  A
C425       C1421   1.494       .  S
O426       Zr427   2.436       .  S
O426        H455   0.990       .  S
Zr427       O430   2.434       .  S
Zr427       O431   2.434       .  S
Zr427       O432   2.415       .  S
O428        C433   1.287       .  A
O429        H446   0.990       .  S
O429        H461   0.989       .  S
O430        H447   0.990       .  S
O431        H451   0.990       .  S
O431        H460   0.990       .  S
O432        C433   1.281       .  A
C433       C1481   1.478       .  S
O434        H453   0.990       .  S
O434        H457   0.990       .  S
O435        H449   0.990       .  S
O435        H456   0.990       .  S
O436        C440   1.278       .  A
O437        C440   1.286       .  A
O438        H448   0.990       .  S
O439        H452   0.990       .  S
C440       C1381   1.479       .  S
Zr463       O464   2.437   1_455  S
Zr463       O465   2.427       .  S
Zr463       O466   2.482       .  S
Zr463       O469   2.537   1_455  S
Zr463       O471   2.392       .  S
Zr463       O472   2.385       .  S
Zr463       O473   2.427       .  S
Zr463       O474   2.406       .  S
O464        H520   0.990       .  S
O464        H528   0.990       .  S
O465        C485   1.282       .  A
O466        C487   1.297       .  A
O467       Zr477   2.388       .  S
O467        C486   1.274       .  A
O468       Zr476   2.434       .  S
O468        C487   1.288       .  A
O469        C486   1.308   1_655  A
O470       Zr478   2.474       .  S
O470        C485   1.293       .  A
O471       Zr476   2.390       .  S
O471       Zr478   2.352       .  S
O472       Zr477   2.397       .  S
O472       Zr478   2.350       .  S
O472        H507   0.964       .  S
O473       Zr476   2.429       .  S
O473       Zr493   2.360       .  S
O473        H510   0.962       .  S
O474       Zr477   2.406       .  S
O474       Zr493   2.406       .  S
Zr475       O500   2.439       .  S
Zr475       O494   2.429       .  S
Zr475       O502   2.388       .  S
Zr475       O490   2.413       .  S
Zr475       O481   2.408       .  S
Zr475       O482   2.403       .  S
Zr475       O483   2.371       .  S
Zr475       O484   2.370       .  S
Zr476       O495   2.435       .  S
Zr476       O488   2.434       .  S
Zr476       O489   2.489       .  S
Zr476       O482   2.401       .  S
Zr476       O483   2.388       .  S
Zr477       O479   2.435       .  S
Zr477       O501   2.437       .  S
Zr477       O503   2.438       .  S
Zr477       O481   2.378       .  S
Zr477       O484   2.366       .  S
Zr478       O504   2.436       .  S
Zr478       O505   2.434       .  S
Zr478       O480   2.435       .  S
Zr478       O481   2.427       .  S
Zr478       O482   2.372       .  S
O479        H516   0.989       .  S
O480        H511   0.990       .  S
O480        H525   0.990       .  S
O482        H508   0.964       .  S
O483       Zr493   2.387       .  S
O484       Zr493   2.360       .  S
O484        H509   0.965       .  S
C485       C1368   1.504       .  S
C486       C1278   1.517   1_455  S
C487       C1261   1.484       .  S
O488        H524   0.990       .  S
O489        C491   1.291       .  A
O490        C491   1.275       .  A
C491       C1298   1.507       .  S
O492       Zr493   2.440       .  S
O492        H521   0.991       .  S
Zr493       O496   2.437       .  S
Zr493       O497   2.437       .  S
Zr493       O498   2.408       .  S
O494        C499   1.283       .  A
O495        H512   0.990       .  S
O495        H527   0.990       .  S
O496        H513   0.989       .  S
O497        H517   0.990       .  S
O497        H526   0.990       .  S
O498        C499   1.281       .  A
C499       C1431   1.485       .  S
O500        H519   0.990       .  S
O500        H523   0.990       .  S
O501        H515   0.990       .  S
O501        H522   0.990       .  S
O502        C506   1.277       .  A
O503        C506   1.284       .  A
O504        H514   0.990       .  S
O505        H518   0.991       .  S
C506       C1321   1.478       .  S
Zr529       O530   2.436       .  S
Zr529       O531   2.406       .  S
Zr529       O532   2.505       .  S
Zr529       O535   2.448       .  S
Zr529       O537   2.363       .  S
Zr529       O538   2.402       .  S
Zr529       O539   2.408       .  S
Zr529       O540   2.401       .  S
O530        H586   0.990       .  S
O530        H594   0.990       .  S
O531        C551   1.282       .  A
O532        C553   1.295       .  A
O533       Zr543   2.437       .  S
O533        C552   1.287       .  A
O534       Zr542   2.394       .  S
O534        C553   1.271       .  A
O535        C552   1.292       .  A
O536       Zr544   2.470       .  S
O536        C551   1.290       .  A
O537       Zr542   2.398       .  S
O537       Zr544   2.354       .  S
O538       Zr543   2.376       .  S
O538       Zr544   2.370       .  S
O538        H573   0.965       .  S
O539       Zr542   2.400       .  S
O539       Zr559   2.409       .  S
O539        H576   0.967       .  S
O540       Zr543   2.400       .  S
O540       Zr559   2.368       .  S
Zr541       O566   2.438       .  S
Zr541       O560   2.401       .  S
Zr541       O568   2.397       .  S
Zr541       O556   2.399       .  S
Zr541       O547   2.396       .  S
Zr541       O548   2.402       .  S
Zr541       O549   2.366       .  S
Zr541       O550   2.378       .  S
Zr542       O561   2.437       .  S
Zr542       O554   2.433       .  S
Zr542       O555   2.421       .  S
Zr542       O548   2.391       .  S
Zr542       O549   2.367       .  S
Zr543       O545   2.436       .  S
Zr543       O567   2.436       .  S
Zr543       O569   2.479       .  S
Zr543       O547   2.373       .  S
Zr543       O550   2.379       .  S
Zr544       O570   2.432       .  S
Zr544       O571   2.434       .  S
Zr544       O546   2.435       .  S
Zr544       O547   2.387       .  S
Zr544       O548   2.431       .  S
O545        H582   0.990       .  S
O546        H577   0.990       .  S
O546        H591   0.990       .  S
O548        H574   0.966       .  S
O549       Zr559   2.375       .  S
O550       Zr559   2.390       .  S
O550        H575   0.967       .  S
C551       C1218   1.496       .  S
C552       C1288   1.484       .  S
C553       C1251   1.480       .  S
O554        H590   0.990       .  S
O555        C557   1.279       .  A
O556        C557   1.279       .  A
C557       C1238   1.481       .  S
O558       Zr559   2.440       .  S
O558        H587   0.990       .  S
Zr559       O562   2.436       .  S
Zr559       O563   2.440       .  S
Zr559       O564   2.419       .  S
O560        C565   1.278       .  A
O561        H578   0.990       .  S
O561        H593   0.990       .  S
O562        H579   0.989       .  S
O563        H583   0.990       .  S
O563        H592   0.991       .  S
O564        C565   1.283       .  A
C565       C1208   1.467       .  S
O566        H585   0.990       .  S
O566        H589   0.990       .  S
O567        H581   0.990       .  S
O567        H588   0.989       .  S
O568        C572   1.271       .  A
O569        C572   1.289       .  A
O570        H580   0.990       .  S
O571        H584   0.991       .  S
C572       C1231   1.495       .  S
Zr595       O596   2.432       .  S
Zr595       O597   2.420       .  S
Zr595       O598   2.500       .  S
Zr595       O601   2.459       .  S
Zr595       O603   2.377       .  S
Zr595       O604   2.398       .  S
Zr595       O605   2.409       .  S
Zr595       O606   2.408       .  S
O596        H652   0.990       .  S
O596        H660   0.990       .  S
O597        C617   1.284       .  A
O598        C619   1.294       .  A
O599       Zr609   2.439       .  S
O599        C618   1.287       .  A
O600       Zr608   2.387       .  S
O600        C619   1.268       .  A
O601        C618   1.292       .  A
O602       Zr610   2.473       .  S
O602        C617   1.292       .  A
O603       Zr608   2.404       .  S
O603       Zr610   2.361       .  S
O604       Zr609   2.382       .  S
O604       Zr610   2.383       .  S
O604        H639   0.964       .  S
O605       Zr608   2.401       .  S
O605       Zr625   2.399       .  S
O605        H642   0.965       .  S
O606       Zr609   2.397       .  S
O606       Zr625   2.387       .  S
Zr607       O632   2.442       .  S
Zr607       O626   2.399       .  S
Zr607       O634   2.403       .  S
Zr607       O622   2.412       .  S
Zr607       O613   2.394       .  S
Zr607       O614   2.399       .  S
Zr607       O615   2.368       .  S
Zr607       O616   2.381       .  S
Zr608       O627   2.437       .  S
Zr608       O620   2.436       .  S
Zr608       O621   2.423       .  S
Zr608       O614   2.392       .  S
Zr608       O615   2.378       .  S
Zr609       O611   2.437       .  S
Zr609       O633   2.438       .  S
Zr609       O635   2.474       .  S
Zr609       O613   2.374       .  S
Zr609       O616   2.390       .  S
Zr610       O636   2.434       .  S
Zr610       O637   2.437       .  S
Zr610       O612   2.434       .  S
Zr610       O613   2.371       .  S
Zr610       O614   2.424       .  S
O611        H648   0.990       .  S
O612        H643   0.989       .  S
O612        H657   0.989       .  S
O614        H640   0.967       .  S
O615       Zr625   2.371       .  S
O616       Zr625   2.383       .  S
O616        H641   0.966       .  S
C617       C1198   1.503       .  S
C618       C1311   1.486       .  S
C619       C1248   1.493       .  S
O620        H656   0.990       .  S
O621        C623   1.281       .  A
O622        C623   1.280       .  A
C623       C1188   1.485       .  S
O624       Zr625   2.434       .  S
O624        H653   0.990       .  S
Zr625       O628   2.437       .  S
Zr625       O629   2.436       .  S
Zr625       O630   2.429       .  S
O626        C631   1.279       .  A
O627        H644   0.990       .  S
O627        H659   0.990       .  S
O628        H645   0.990       .  S
O629        H649   0.989       .  S
O629        H658   0.989       .  S
O630        C631   1.281       .  A
C631       C1171   1.478       .  S
O632        H651   0.990       .  S
O632        H655   0.990       .  S
O633        H647   0.990       .  S
O633        H654   0.990       .  S
O634        C638   1.271       .  A
O635        C638   1.290       .  A
O636        H646   0.990       .  S
O637        H650   0.991       .  S
C638       C1178   1.486       .  S
Zr661       O662   2.435       .  S
Zr661       O663   2.421   1_545  S
Zr661       O664   2.521       .  S
Zr661       O667   2.472       .  S
Zr661       O669   2.370       .  S
Zr661       O670   2.404   1_545  S
Zr661       O671   2.415       .  S
Zr661       O672   2.395       .  S
O662        H718   0.990       .  S
O662        H726   0.990       .  S
O663        C683   1.283       .  A
O664        C685   1.298       .  A
O665       Zr675   2.441       .  S
O665        C684   1.288       .  A
O666       Zr674   2.390       .  S
O666        C685   1.267       .  A
O667        C684   1.296       .  A
O668       Zr676   2.472       .  S
O668        C683   1.293       .  A
O669       Zr674   2.401       .  S
O669       Zr676   2.356   1_545  S
O670       Zr675   2.380   1_565  S
O670       Zr676   2.376       .  S
O670        H705   0.963       .  S
O671       Zr674   2.410       .  S
O671       Zr691   2.398       .  S
O671        H708   0.968       .  S
O672       Zr675   2.396       .  S
O672       Zr691   2.359       .  S
Zr673       O698   2.441       .  S
Zr673       O692   2.417       .  S
Zr673       O700   2.392       .  S
Zr673       O688   2.401       .  S
Zr673       O679   2.395       .  S
Zr673       O680   2.401       .  S
Zr673       O681   2.364       .  S
Zr673       O682   2.377       .  S
Zr674       O693   2.441       .  S
Zr674       O686   2.436       .  S
Zr674       O687   2.431       .  S
Zr674       O680   2.391       .  S
Zr674       O681   2.363       .  S
Zr675       O677   2.435       .  S
Zr675       O699   2.438   1_545  S
Zr675       O701   2.478       .  S
Zr675       O679   2.379       .  S
Zr675       O682   2.375       .  S
Zr676       O702   2.432       .  S
Zr676       O703   2.435       .  S
Zr676       O678   2.442       .  S
Zr676       O679   2.395   1_565  S
Zr676       O680   2.433   1_565  S
O677        H714   0.990       .  S
O678        H709   0.990       .  S
O678        H723   0.990       .  S
O680        H706   0.965       .  S
O681       Zr691   2.367       .  S
O682       Zr691   2.386       .  S
O682        H707   0.966       .  S
C683       C1228   1.489       .  S
C684       C1438   1.488       .  S
C685       C1161   1.506       .  S
O686        H722   0.990       .  S
O687        C689   1.283       .  A
O688        C689   1.278       .  A
C689       C1148   1.478       .  S
O690       Zr691   2.435       .  S
O690        H719   0.990       .  S
Zr691       O694   2.434       .  S
Zr691       O695   2.437       .  S
Zr691       O696   2.399       .  S
O692        C697   1.281       .  A
O693        H710   0.990       .  S
O693        H725   0.990       .  S
O694        H711   0.990       .  S
O695        H715   0.990       .  S
O695        H724   0.991       .  S
O696        C697   1.277       .  A
C697       C1131   1.446       .  S
O698        H717   0.990       .  S
O698        H721   0.990       .  S
O699        H713   0.990       .  S
O699        H720   0.990       .  S
O700        C704   1.274       .  A
O701        C704   1.290       .  A
O702        H712   0.990       .  S
O703        H716   0.990       .  S
C704       C1138   1.497       .  S
Zr727       O728   2.435   1_565  S
Zr727       O729   2.423       .  S
Zr727       O730   2.530   1_565  S
Zr727       O733   2.466       .  S
Zr727       O735   2.373       .  S
Zr727       O736   2.404       .  S
Zr727       O737   2.411       .  S
Zr727       O738   2.413       .  S
O728        H784   0.990       .  S
O728        H792   0.990       .  S
O729        C749   1.282       .  A
O730        C751   1.299       .  A
O731       Zr741   2.453       .  S
O731        C750   1.291       .  A
O732       Zr740   2.383       .  S
O732        C751   1.265   1_565  A
O733        C750   1.293       .  A
O734       Zr742   2.451       .  S
O734        C749   1.288       .  A
O735       Zr740   2.402       .  S
O735       Zr742   2.369       .  S
O736       Zr741   2.378       .  S
O736       Zr742   2.379       .  S
O736        H771   0.963       .  S
O737       Zr740   2.404       .  S
O737       Zr757   2.399       .  S
O737        H774   0.966       .  S
O738       Zr741   2.402       .  S
O738       Zr757   2.379       .  S
Zr739       O764   2.442       .  S
Zr739       O758   2.412       .  S
Zr739       O766   2.414       .  S
Zr739       O754   2.416       .  S
Zr739       O745   2.396       .  S
Zr739       O746   2.403       .  S
Zr739       O747   2.367       .  S
Zr739       O748   2.385       .  S
Zr740       O759   2.440       .  S
Zr740       O752   2.437       .  S
Zr740       O753   2.409       .  S
Zr740       O746   2.390       .  S
Zr740       O747   2.373       .  S
Zr741       O743   2.436       .  S
Zr741       O765   2.439       .  S
Zr741       O767   2.489       .  S
Zr741       O745   2.379       .  S
Zr741       O748   2.381       .  S
Zr742       O768   2.435       .  S
Zr742       O769   2.437       .  S
Zr742       O744   2.438       .  S
Zr742       O745   2.380       .  S
Zr742       O746   2.427       .  S
O743        H780   0.990       .  S
O744        H775   0.990       .  S
O744        H789   0.990       .  S
O746        H772   0.966       .  S
O747       Zr757   2.370       .  S
O748       Zr757   2.386       .  S
O748        H773   0.966       .  S
C749       C1118   1.484       .  S
C750       C1491   1.512       .  S
C751       C1158   1.506       .  S
O752        H788   0.990       .  S
O753        C755   1.277       .  A
O754        C755   1.283       .  A
C755       C1241   1.482       .  S
O756       Zr757   2.440       .  S
O756        H785   0.990       .  S
Zr757       O760   2.438       .  S
Zr757       O761   2.438       .  S
Zr757       O762   2.423       .  S
O758        C763   1.280       .  A
O759        H776   0.989       .  S
O759        H791   0.990       .  S
O760        H777   0.990       .  S
O761        H781   0.990       .  S
O761        H790   0.990       .  S
O762        C763   1.283       .  A
C763       C1108   1.473       .  S
O764        H783   0.990       .  S
O764        H787   0.990       .  S
O765        H779   0.990       .  S
O765        H786   0.990       .  S
O766        C770   1.274       .  A
O767        C770   1.293       .  A
O768        H778   0.990       .  S
O769        H782   0.990       .  S
C770       C1201   1.483       .  S
Zr793       O794   2.434   1_655  S
Zr793       O795   2.435       .  S
Zr793       O796   2.531       .  S
Zr793       O799   2.472       .  S
Zr793       O801   2.369       .  S
Zr793       O802   2.404       .  S
Zr793       O803   2.420   1_655  S
Zr793       O804   2.407   1_655  S
O794        H850   0.990   1_455  S
O794        H858   0.990       .  S
O795        C815   1.287       .  A
O796        C817   1.299   1_655  A
O797       Zr807   2.425       .  S
O797        C816   1.286       .  A
O798       Zr806   2.379       .  S
O798        C817   1.265       .  A
O799        C816   1.296       .  A
O800       Zr808   2.459       .  S
O800        C815   1.288       .  A
O801       Zr806   2.399   1_655  S
O801       Zr808   2.360       .  S
O802       Zr807   2.377       .  S
O802       Zr808   2.383       .  S
O802        H837   0.964       .  S
O803       Zr806   2.404       .  S
O803       Zr823   2.407       .  S
O803        H840   0.966       .  S
O804       Zr807   2.389   1_455  S
O804       Zr823   2.371       .  S
Zr805       O830   2.440       .  S
Zr805       O824   2.397       .  S
Zr805       O832   2.412       .  S
Zr805       O820   2.409       .  S
Zr805       O811   2.393   1_455  S
Zr805       O812   2.395   1_455  S
Zr805       O813   2.366       .  S
Zr805       O814   2.383       .  S
Zr806       O825   2.440       .  S
Zr806       O818   2.435       .  S
Zr806       O819   2.411       .  S
Zr806       O812   2.389   1_455  S
Zr806       O813   2.366       .  S
Zr807       O809   2.436   1_655  S
Zr807       O831   2.436       .  S
Zr807       O833   2.450       .  S
Zr807       O811   2.379       .  S
Zr807       O814   2.379   1_655  S
Zr808       O834   2.434       .  S
Zr808       O835   2.438       .  S
Zr808       O810   2.440       .  S
Zr808       O811   2.386       .  S
Zr808       O812   2.426       .  S
O809        H846   0.990       .  S
O810        H841   0.990       .  S
O810        H855   0.989       .  S
O812        H838   0.966       .  S
O813       Zr823   2.370       .  S
O814       Zr823   2.388       .  S
O814        H839   0.966       .  S
C815       C1181   1.496       .  S
C816       C1271   1.491       .  S
C817       C1101   1.505   1_455  S
O818        H854   0.990       .  S
O819        C821   1.278       .  A
O820        C821   1.282       .  A
C821       C1091   1.478       .  S
O822       Zr823   2.440       .  S
O822        H851   0.990       .  S
Zr823       O826   2.437       .  S
Zr823       O827   2.438       .  S
Zr823       O828   2.427       .  S
O824        C829   1.276       .  A
O825        H842   0.990       .  S
O825        H857   0.990       .  S
O826        H843   0.990       .  S
O827        H847   0.990       .  S
O827        H856   0.990       .  S
O828        C829   1.284       .  A
C829       C1111   1.478       .  S
O830        H849   0.989   1_455  S
O830        H853   0.990       .  S
O831        H845   0.990       .  S
O831        H852   0.990       .  S
O832        C836   1.274   1_455  A
O833        C836   1.285       .  A
O834        H844   0.990       .  S
O835        H848   0.990       .  S
C836       C1078   1.466       .  S
Zr859       O860   2.440   1_655  S
Zr859       O861   2.445       .  S
Zr859       O862   2.519       .  S
Zr859       O865   2.467       .  S
Zr859       O867   2.374       .  S
Zr859       O868   2.405       .  S
Zr859       O869   2.418       .  S
Zr859       O870   2.402       .  S
O860        H916   0.990       .  S
O860        H924   0.990       .  S
O861        C881   1.287       .  A
O862        C883   1.298       .  A
O863       Zr873   2.441       .  S
O863        C882   1.287       .  A
O864       Zr872   2.387       .  S
O864        C883   1.267       .  A
O865        C882   1.295       .  A
O866       Zr874   2.459       .  S
O866        C881   1.290       .  A
O867       Zr872   2.406       .  S
O867       Zr874   2.364       .  S
O868       Zr873   2.390       .  S
O868       Zr874   2.382       .  S
O868        H903   0.964       .  S
O869       Zr872   2.408       .  S
O869       Zr889   2.406       .  S
O869        H906   0.967       .  S
O870       Zr873   2.396       .  S
O870       Zr889   2.370       .  S
Zr871       O896   2.438       .  S
Zr871       O890   2.400       .  S
Zr871       O898   2.394       .  S
Zr871       O886   2.386       .  S
Zr871       O877   2.395       .  S
Zr871       O878   2.397       .  S
Zr871       O879   2.364       .  S
Zr871       O880   2.378       .  S
Zr872       O891   2.438       .  S
Zr872       O884   2.435       .  S
Zr872       O885   2.435       .  S
Zr872       O878   2.386       .  S
Zr872       O879   2.368       .  S
Zr873       O875   2.437       .  S
Zr873       O897   2.436       .  S
Zr873       O899   2.475       .  S
Zr873       O877   2.378       .  S
Zr873       O880   2.389       .  S
Zr874       O900   2.436       .  S
Zr874       O901   2.435       .  S
Zr874       O876   2.437       .  S
Zr874       O877   2.385       .  S
Zr874       O878   2.422       .  S
O875        H912   0.989       .  S
O876        H907   0.990       .  S
O876        H921   0.989       .  S
O878        H904   0.966       .  S
O879       Zr889   2.366       .  S
O880       Zr889   2.381       .  S
O880        H905   0.966       .  S
C881       C1068   1.500       .  S
C882       C1258   1.486       .  S
C883       C1098   1.506       .  S
O884        H920   0.990       .  S
O885        C887   1.283       .  A
O886        C887   1.278       .  A
C887       C1191   1.484       .  S
O888       Zr889   2.434       .  S
O888        H917   0.990       .  S
Zr889       O892   2.437       .  S
Zr889       O893   2.436       .  S
Zr889       O894   2.426       .  S
O890        C895   1.279       .  A
O891        H908   0.990       .  S
O891        H923   0.990       .  S
O892        H909   0.990       .  S
O893        H913   0.989       .  S
O893        H922   0.989       .  S
O894        C895   1.282       .  A
C895       C1128   1.467       .  S
O896        H915   0.990       .  S
O896        H919   0.989       .  S
O897        H911   0.990       .  S
O897        H918   0.990       .  S
O898        C902   1.269       .  A
O899        C902   1.288       .  A
O900        H910   0.990       .  S
O901        H914   0.990       .  S
C902       C1221   1.480       .  S
Zr925       O926   2.437   1_565  S
Zr925       O927   2.442   1_455  S
Zr925       O928   2.536   1_565  S
Zr925       O931   2.485   1_455  S
Zr925       O933   2.367   1_455  S
Zr925       O934   2.404   1_455  S
Zr925       O935   2.416       .  S
Zr925       O936   2.404       .  S
O926        H982   0.990   1_455  S
O926        H990   0.990       .  S
O927        C947   1.287       .  A
O928        C949   1.305       .  A
O929       Zr939   2.447       .  S
O929        C948   1.289       .  A
O930       Zr938   2.384       .  S
O930        C949   1.269   1_565  A
O931        C948   1.298       .  A
O932       Zr940   2.454       .  S
O932        C947   1.288       .  A
O933       Zr938   2.398   1_655  S
O933       Zr940   2.356       .  S
O934       Zr939   2.375       .  S
O934       Zr940   2.381       .  S
O934        H969   0.963       .  S
O935       Zr938   2.404       .  S
O935       Zr955   2.410       .  S
O935        H972   0.968       .  S
O936       Zr939   2.405   1_455  S
O936       Zr955   2.376       .  S
Zr937       O962   2.439       .  S
Zr937       O956   2.398       .  S
Zr937       O964   2.392       .  S
Zr937       O952   2.398       .  S
Zr937       O943   2.394   1_455  S
Zr937       O944   2.393       .  S
Zr937       O945   2.359       .  S
Zr937       O946   2.375       .  S
Zr938       O957   2.440       .  S
Zr938       O950   2.434       .  S
Zr938       O951   2.425       .  S
Zr938       O944   2.383       .  S
Zr938       O945   2.367       .  S
Zr939       O941   2.435   1_655  S
Zr939       O963   2.436       .  S
Zr939       O965   2.499       .  S
Zr939       O943   2.370       .  S
Zr939       O946   2.379   1_655  S
Zr940       O966   2.429       .  S
Zr940       O967   2.435       .  S
Zr940       O942   2.438       .  S
Zr940       O943   2.386       .  S
Zr940       O944   2.420   1_655  S
O941        H978   0.990       .  S
O942        H973   0.990       .  S
O942        H987   0.990       .  S
O944        H970   0.967       .  S
O945       Zr955   2.367       .  S
O946       Zr955   2.392       .  S
O946        H971   0.965       .  S
C947       C1141   1.487       .  S
C948       C1361   1.501       .  S
C949       C1058   1.509       .  S
O950        H986   0.990       .  S
O951        C953   1.282       .  A
O952        C953   1.279       .  A
C953       C1088   1.481       .  S
O954       Zr955   2.440       .  S
O954        H983   0.990       .  S
Zr955       O958   2.440       .  S
Zr955       O959   2.438       .  S
Zr955       O960   2.422       .  S
O956        C961   1.277       .  A
O957        H974   0.989       .  S
O957        H989   0.990       .  S
O958        H975   0.990       .  S
O959        H979   0.990       .  S
O959        H988   0.991       .  S
O960        C961   1.283       .  A
C961       C1211   1.473       .  S
O962        H981   0.990       .  S
O962        H985   0.990       .  S
O963        H977   0.990       .  S
O963        H984   0.990       .  S
O964        C968   1.271   1_455  A
O965        C968   1.292       .  A
O966        H976   0.990       .  S
O967        H980   0.991       .  S
C968       C1071   1.502       .  S
Zr991       O992   2.436       .  S
Zr991       O993   2.440   1_545  S
Zr991       O994   2.531       .  S
Zr991       O997   2.481       .  S
Zr991       O999   2.370       .  S
Zr991      O1000   2.404   1_545  S
Zr991      O1001   2.413       .  S
Zr991      O1002   2.409       .  S
O992       H1048   0.990   1_655  S
O992       H1056   0.990       .  S
O993       C1013   1.287       .  A
O994       C1015   1.304       .  A
O995      Zr1005   2.437       .  S
O995       C1014   1.287       .  A
O996      Zr1004   2.376       .  S
O996       C1015   1.268       .  A
O997       C1014   1.297       .  A
O998      Zr1006   2.437       .  S
O998       C1013   1.283       .  A
O999      Zr1004   2.398       .  S
O999      Zr1006   2.360   1_545  S
O1000     Zr1005   2.380   1_565  S
O1000     Zr1006   2.385       .  S
O1000      H1035   0.964       .  S
O1001     Zr1004   2.399       .  S
O1001     Zr1021   2.405       .  S
O1001      H1038   0.967       .  S
O1002     Zr1005   2.398       .  S
O1002     Zr1021   2.375       .  S
Zr1003     O1028   2.438       .  S
Zr1003     O1022   2.387       .  S
Zr1003     O1030   2.399       .  S
Zr1003     O1018   2.417       .  S
Zr1003     O1009   2.392       .  S
Zr1003     O1010   2.398       .  S
Zr1003     O1011   2.365       .  S
Zr1003     O1012   2.384       .  S
Zr1004     O1023   2.437       .  S
Zr1004     O1016   2.436       .  S
Zr1004     O1017   2.426       .  S
Zr1004     O1010   2.387       .  S
Zr1004     O1011   2.355       .  S
Zr1005     O1007   2.434       .  S
Zr1005     O1029   2.440   1_545  S
Zr1005     O1031   2.470       .  S
Zr1005     O1009   2.382       .  S
Zr1005     O1012   2.382       .  S
Zr1006     O1032   2.434       .  S
Zr1006     O1033   2.435       .  S
Zr1006     O1008   2.440       .  S
Zr1006     O1009   2.384   1_565  S
Zr1006     O1010   2.421   1_565  S
O1007      H1044   0.990       .  S
O1008      H1039   0.990       .  S
O1008      H1053   0.990       .  S
O1010      H1036   0.965       .  S
O1011     Zr1021   2.359       .  S
O1012     Zr1021   2.385       .  S
O1012      H1037   0.966       .  S
C1013      C1081   1.490       .  S
C1014      C1398   1.492       .  S
C1015      C1061   1.509       .  S
O1016      H1052   0.989       .  S
O1017      C1019   1.284       .  A
O1018      C1019   1.280       .  A
C1019      C1151   1.485       .  S
O1020     Zr1021   2.435       .  S
O1020      H1049   0.990       .  S
Zr1021     O1024   2.433       .  S
Zr1021     O1025   2.438       .  S
Zr1021     O1026   2.429       .  S
O1022      C1027   1.276       .  A
O1023      H1040   0.990       .  S
O1023      H1055   0.990       .  S
O1024      H1041   0.990       .  S
O1025      H1045   0.990       .  S
O1025      H1054   0.989       .  S
O1026      C1027   1.284       .  A
C1027      C1168   1.455       .  S
O1028      H1047   0.990       .  S
O1028      H1051   0.990       .  S
O1029      H1043   0.989       .  S
O1029      H1050   0.990       .  S
O1030      C1034   1.271       .  A
O1031      C1034   1.286       .  A
O1032      H1042   0.990       .  S
O1033      H1046   0.990       .  S
C1034      C1121   1.492       .  S
C1057      C1058   1.398   1_655  A
C1057      C1062   1.405       .  A
C1057      H1064   1.084       .  S
C1058      C1059   1.432       .  A
C1059      C1060   1.406       .  A
C1059     Br1066   1.922   1_545  S
C1060      C1061   1.398   1_455  A
C1060      H1065   1.084       .  S
C1061      C1062   1.433       .  A
C1062     Br1063   1.923       .  S
C1067      C1068   1.410       .  A
C1067      C1072   1.406       .  A
C1067      H1074   1.083       .  S
C1068      C1069   1.415       .  A
C1069      C1070   1.403       .  A
C1069     Br1076   1.922   1_655  S
C1070      C1071   1.411       .  A
C1070      H1075   1.083   1_655  S
C1071      C1072   1.414       .  A
C1072     Br1073   1.914       .  S
C1077      C1078   1.400       .  A
C1077      C1082   1.397       .  A
C1077      H1084   1.084       .  S
C1078      C1079   1.402       .  A
C1079      C1080   1.398       .  A
C1079     Br1086   1.918   1_655  S
C1080      C1081   1.412       .  A
C1080      H1085   1.083       .  S
C1081      C1082   1.420       .  A
C1082     Br1083   1.924       .  S
C1087      C1088   1.408       .  A
C1087      C1092   1.391       .  A
C1087      H1094   1.083       .  S
C1088      C1089   1.409       .  A
C1089      C1090   1.394       .  A
C1089     Br1096   1.920       .  S
C1090      C1091   1.407       .  A
C1090      H1095   1.084       .  S
C1091      C1092   1.414       .  A
C1092     Br1093   1.925       .  S
C1097      C1098   1.421       .  A
C1097      C1102   1.407       .  A
C1097      H1104   1.081       .  S
C1098      C1099   1.407   1_655  A
C1099      C1100   1.406       .  A
C1099     Br1106   1.921       .  S
C1100      C1101   1.419   1_455  A
C1100      H1105   1.080       .  S
C1101      C1102   1.403       .  A
C1102     Br1103   1.918       .  S
C1107      C1108   1.400       .  A
C1107      C1112   1.392       .  A
C1107      H1114   1.084       .  S
C1108      C1109   1.412       .  A
C1109      C1110   1.395       .  A
C1109     Br1116   1.919       .  S
C1110      C1111   1.404       .  A
C1110      H1115   1.083       .  S
C1111      C1112   1.418       .  A
C1112     Br1113   1.926       .  S
C1117      C1118   1.409       .  A
C1117      C1122   1.403       .  A
C1117      H1124   1.084       .  S
C1118      C1119   1.411   1_565  A
C1119      C1120   1.395       .  A
C1119     Br1126   1.925       .  S
C1120      C1121   1.410       .  A
C1120      H1125   1.083       .  S
C1121      C1122   1.414   1_545  A
C1122     Br1123   1.920       .  S
C1127      C1128   1.406       .  A
C1127      C1132   1.390       .  A
C1127      H1134   1.084       .  S
C1128      C1129   1.412       .  A
C1129      C1130   1.395       .  A
C1129     Br1136   1.917       .  S
C1130      C1131   1.397       .  A
C1130      H1135   1.084       .  S
C1131      C1132   1.401       .  A
C1132     Br1133   1.922       .  S
C1137      C1138   1.413       .  A
C1137      C1142   1.399       .  A
C1137      H1144   1.083       .  S
C1138      C1139   1.415   1_545  A
C1139      C1140   1.405       .  A
C1139     Br1146   1.922       .  S
C1140      C1141   1.409       .  A
C1140      H1145   1.083       .  S
C1141      C1142   1.407   1_565  A
C1142     Br1143   1.922       .  S
C1147      C1148   1.404       .  A
C1147      C1152   1.397       .  A
C1147      H1154   1.083       .  S
C1148      C1149   1.412       .  A
C1149      C1150   1.393       .  A
C1149     Br1156   1.924       .  S
C1150      C1151   1.406       .  A
C1150      H1155   1.083       .  S
C1151      C1152   1.414       .  A
C1152     Br1153   1.921       .  S
C1157      C1158   1.418       .  A
C1157      C1162   1.405       .  A
C1157      H1164   1.079   1_545  S
C1158      C1159   1.404       .  A
C1159      C1160   1.409       .  A
C1159     Br1166   1.917       .  S
C1160      C1161   1.420       .  A
C1160      H1165   1.080       .  S
C1161      C1162   1.406       .  A
C1162     Br1163   1.920   1_545  S
C1167      C1168   1.400       .  A
C1167      C1172   1.396       .  A
C1167      H1174   1.084       .  S
C1168      C1169   1.402       .  A
C1169      C1170   1.387       .  A
C1169     Br1176   1.923       .  S
C1170      C1171   1.409       .  A
C1170      H1175   1.084       .  S
C1171      C1172   1.416       .  A
C1172     Br1173   1.919       .  S
C1177      C1178   1.405       .  A
C1177      C1182   1.403       .  A
C1177      H1184   1.084       .  S
C1178      C1179   1.413       .  A
C1179      C1180   1.398       .  A
C1179     Br1186   1.924       .  S
C1180      C1181   1.408       .  A
C1180      H1185   1.083       .  S
C1181      C1182   1.420       .  A
C1182     Br1183   1.922       .  S
C1187      C1188   1.410       .  A
C1187      C1192   1.396       .  A
C1187      H1194   1.083       .  S
C1188      C1189   1.413       .  A
C1189      C1190   1.392       .  A
C1189     Br1196   1.924       .  S
C1190      C1191   1.409       .  A
C1190      H1195   1.083       .  S
C1191      C1192   1.411       .  A
C1192     Br1193   1.922       .  S
C1197      C1198   1.414       .  A
C1197      C1202   1.402       .  A
C1197      H1204   1.083       .  S
C1198      C1199   1.418       .  A
C1199      C1200   1.406       .  A
C1199     Br1206   1.920       .  S
C1200      C1201   1.404       .  A
C1200      H1205   1.084       .  S
C1201      C1202   1.406       .  A
C1202     Br1203   1.918       .  S
C1207      C1208   1.401       .  A
C1207      C1212   1.392       .  A
C1207      H1214   1.084       .  S
C1208      C1209   1.411       .  A
C1209      C1210   1.391       .  A
C1209     Br1216   1.923       .  S
C1210      C1211   1.403       .  A
C1210      H1215   1.083       .  S
C1211      C1212   1.416       .  A
C1212     Br1213   1.925       .  S
C1217      C1218   1.411       .  A
C1217      C1222   1.395       .  A
C1217      H1224   1.083       .  S
C1218      C1219   1.419       .  A
C1219      C1220   1.404       .  A
C1219     Br1226   1.922       .  S
C1220      C1221   1.405       .  A
C1220      H1225   1.084       .  S
C1221      C1222   1.409       .  A
C1222     Br1223   1.923       .  S
C1227      C1228   1.407       .  A
C1227      C1232   1.403       .  A
C1227      H1234   1.083       .  S
C1228      C1229   1.413       .  A
C1229      C1230   1.400       .  A
C1229     Br1236   1.923       .  S
C1230      C1231   1.410       .  A
C1230      H1235   1.083       .  S
C1231      C1232   1.414       .  A
C1232     Br1233   1.918       .  S
C1237      C1238   1.407       .  A
C1237      C1242   1.394       .  A
C1237      H1244   1.083       .  S
C1238      C1239   1.413       .  A
C1239      C1240   1.393       .  A
C1239     Br1246   1.923       .  S
C1240      C1241   1.406       .  A
C1240      H1245   1.083       .  S
C1241      C1242   1.416       .  A
C1242     Br1243   1.924       .  S
C1247      C1248   1.414       .  A
C1247      C1252   1.406       .  A
C1247      H1254   1.083       .  S
C1248      C1249   1.413       .  A
C1249      C1250   1.402       .  A
C1249     Br1256   1.918       .  S
C1250      C1251   1.405       .  A
C1250      H1255   1.082       .  S
C1251      C1252   1.403       .  A
C1252     Br1253   1.915       .  S
C1257      C1258   1.397       .  A
C1257      C1262   1.394   1_655  A
C1257      H1264   1.084       .  S
C1258      C1259   1.419       .  A
C1259      C1260   1.408       .  A
C1259     Br1266   1.916       .  S
C1260      C1261   1.403   1_655  A
C1260      H1265   1.084       .  S
C1261      C1262   1.415       .  A
C1262     Br1263   1.918       .  S
C1267      C1268   1.410       .  A
C1267      C1272   1.398   1_556  A
C1267      H1274   1.082       .  S
C1268      C1269   1.409       .  A
C1269      C1270   1.406   1_556  A
C1269     Br1276   1.919   1_655  S
C1270      C1271   1.414       .  A
C1270      H1275   1.083   1_655  S
C1271      C1272   1.408       .  A
C1272     Br1273   1.921       .  S
C1277      C1278   1.400       .  A
C1277      C1282   1.408       .  A
C1277      H1284   1.083       .  S
C1278      C1279   1.435       .  A
C1279      C1280   1.408       .  A
C1279     Br1286   1.925   1_655  S
C1280      C1281   1.398       .  A
C1280      H1285   1.083       .  S
C1281      C1282   1.435       .  A
C1282     Br1283   1.927       .  S
C1287      C1288   1.406       .  A
C1287      C1292   1.399       .  A
C1287      H1294   1.083       .  S
C1288      C1289   1.413       .  A
C1289      C1290   1.395       .  A
C1289     Br1296   1.920       .  S
C1290      C1291   1.404       .  A
C1290      H1295   1.084       .  S
C1291      C1292   1.415       .  A
C1292     Br1293   1.922       .  S
C1297      C1298   1.410       .  A
C1297      C1302   1.404       .  A
C1297      H1304   1.084       .  S
C1298      C1299   1.418       .  A
C1299      C1300   1.409       .  A
C1299     Br1306   1.919       .  S
C1300      C1301   1.410       .  A
C1300      H1305   1.083       .  S
C1301      C1302   1.419       .  A
C1302     Br1303   1.924       .  S
C1307      C1308   1.399       .  A
C1307      C1312   1.401   1_556  A
C1307      H1314   1.084       .  S
C1308      C1309   1.415       .  A
C1309      C1310   1.406   1_556  A
C1309     Br1316   1.920       .  S
C1310      C1311   1.404       .  A
C1310      H1315   1.084       .  S
C1311      C1312   1.415       .  A
C1312     Br1313   1.917       .  S
C1317      C1318   1.407       .  A
C1317      C1322   1.390       .  A
C1317      H1324   1.084       .  S
C1318      C1319   1.410       .  A
C1319      C1320   1.394       .  A
C1319     Br1326   1.920       .  S
C1320      C1321   1.410       .  A
C1320      H1325   1.083       .  S
C1321      C1322   1.409       .  A
C1322     Br1323   1.921       .  S
C1327      C1328   1.409       .  A
C1327      C1332   1.402       .  A
C1327      H1334   1.084       .  S
C1328      C1329   1.416       .  A
C1329      C1330   1.409       .  A
C1329     Br1336   1.919       .  S
C1330      C1331   1.409       .  A
C1330      H1335   1.083       .  S
C1331      C1332   1.416       .  A
C1332     Br1333   1.924       .  S
C1337      C1338   1.419       .  A
C1337      C1342   1.410       .  A
C1337      H1344   1.078       .  S
C1338      C1339   1.410       .  A
C1339      C1340   1.408       .  A
C1339     Br1346   1.918       .  S
C1340      C1341   1.417       .  A
C1340      H1345   1.079       .  S
C1341      C1342   1.409       .  A
C1342     Br1343   1.919       .  S
C1347      C1348   1.410       .  A
C1347      C1352   1.397       .  A
C1347      H1354   1.083       .  S
C1348      C1349   1.413       .  A
C1349      C1350   1.398       .  A
C1349     Br1356   1.921       .  S
C1350      C1351   1.407       .  A
C1350      H1355   1.083       .  S
C1351      C1352   1.410       .  A
C1352     Br1353   1.923       .  S
C1357      C1358   1.405       .  A
C1357      C1362   1.401   1_545  A
C1357      H1364   1.084   1_545  S
C1358      C1359   1.414   1_655  A
C1359      C1360   1.411       .  A
C1359     Br1366   1.918       .  S
C1360      C1361   1.409   1_445  A
C1360      H1365   1.083       .  S
C1361      C1362   1.417       .  A
C1362     Br1363   1.919       .  S
C1367      C1368   1.410       .  A
C1367      C1372   1.407       .  A
C1367      H1374   1.083       .  S
C1368      C1369   1.420   1_455  A
C1369      C1370   1.402       .  A
C1369     Br1376   1.925       .  S
C1370      C1371   1.408       .  A
C1370      H1375   1.084       .  S
C1371      C1372   1.416   1_655  A
C1372     Br1373   1.919       .  S
C1377      C1378   1.402       .  A
C1377      C1382   1.393       .  A
C1377      H1384   1.083       .  S
C1378      C1379   1.414       .  A
C1379      C1380   1.393       .  A
C1379     Br1386   1.925       .  S
C1380      C1381   1.403       .  A
C1380      H1385   1.083       .  S
C1381      C1382   1.416       .  A
C1382     Br1383   1.924       .  S
C1387      C1388   1.404       .  A
C1387      C1392   1.404       .  A
C1387      H1394   1.084       .  S
C1388      C1389   1.413       .  A
C1389      C1390   1.401       .  A
C1389     Br1396   1.919       .  S
C1390      C1391   1.409       .  A
C1390      H1395   1.083       .  S
C1391      C1392   1.423       .  A
C1392     Br1393   1.923       .  S
C1397      C1398   1.402   1_565  A
C1397      C1402   1.406   1_655  A
C1397      H1404   1.084       .  S
C1398      C1399   1.417       .  A
C1399      C1400   1.404   1_554  A
C1399     Br1406   1.921       .  S
C1400      C1401   1.403       .  A
C1400      H1405   1.084       .  S
C1401      C1402   1.417   1_646  A
C1402     Br1403   1.917       .  S
C1407      C1408   1.418       .  A
C1407      C1412   1.409       .  A
C1407      H1414   1.080       .  S
C1408      C1409   1.407   1_545  A
C1409      C1410   1.408       .  A
C1409     Br1416   1.919       .  S
C1410      C1411   1.418       .  A
C1410      H1415   1.077       .  S
C1411      C1412   1.408   1_565  A
C1412     Br1413   1.918       .  S
C1417      C1418   1.413   1_655  A
C1417      C1422   1.409       .  A
C1417      H1424   1.083       .  S
C1418      C1419   1.424       .  A
C1419      C1420   1.404       .  A
C1419     Br1426   1.917       .  S
C1420      C1421   1.401   1_455  A
C1420      H1425   1.084       .  S
C1421      C1422   1.413       .  A
C1422     Br1423   1.921       .  S
C1427      C1428   1.406       .  A
C1427      C1432   1.393       .  A
C1427      H1434   1.083       .  S
C1428      C1429   1.406       .  A
C1429      C1430   1.395       .  A
C1429     Br1436   1.919       .  S
C1430      C1431   1.411       .  A
C1430      H1435   1.083       .  S
C1431      C1432   1.415       .  A
C1432     Br1433   1.925       .  S
C1437      C1438   1.405       .  A
C1437      C1442   1.403       .  A
C1437      H1444   1.083       .  S
C1438      C1439   1.414   1_545  A
C1439      C1440   1.405       .  A
C1439     Br1446   1.920       .  S
C1440      C1441   1.406   1_565  A
C1440      H1445   1.084       .  S
C1441      C1442   1.410       .  A
C1442     Br1443   1.919       .  S
C1447      C1448   1.413       .  A
C1447      C1452   1.402       .  A
C1447      H1454   1.083       .  S
C1448      C1449   1.420       .  A
C1449      C1450   1.402       .  A
C1449     Br1456   1.921       .  S
C1450      C1451   1.404       .  A
C1450      H1455   1.083       .  S
C1451      C1452   1.405       .  A
C1452     Br1453   1.918   1_545  S
C1457      C1458   1.407       .  A
C1457      C1462   1.389       .  A
C1457      H1464   1.084       .  S
C1458      C1459   1.411       .  A
C1459      C1460   1.391       .  A
C1459     Br1466   1.921       .  S
C1460      C1461   1.406       .  A
C1460      H1465   1.083       .  S
C1461      C1462   1.410       .  A
C1462     Br1463   1.923       .  S
C1467      C1468   1.412       .  A
C1467      C1472   1.403       .  A
C1467      H1474   1.083       .  S
C1468      C1469   1.421       .  A
C1469      C1470   1.402       .  A
C1469     Br1476   1.921       .  S
C1470      C1471   1.403       .  A
C1470      H1475   1.084       .  S
C1471      C1472   1.405       .  A
C1472     Br1473   1.916       .  S
C1477      C1478   1.405       .  A
C1477      C1482   1.391       .  A
C1477      H1484   1.083       .  S
C1478      C1479   1.420       .  A
C1479      C1480   1.401       .  A
C1479     Br1486   1.923       .  S
C1480      C1481   1.403       .  A
C1480      H1485   1.084       .  S
C1481      C1482   1.411       .  A
C1482     Br1483   1.920       .  S
C1487      C1488   1.412       .  A
C1487      C1492   1.404   1_556  A
C1487      H1494   1.083       .  S
C1488      C1489   1.416   1_545  A
C1489      C1490   1.407   1_556  A
C1489     Br1496   1.920       .  S
C1490      C1491   1.414       .  A
C1490      H1495   1.083       .  S
C1491      C1492   1.418   1_565  A
C1492     Br1493   1.921       .  S
C1497      C1498   1.408       .  A
C1497      C1502   1.406       .  A
C1497      H1504   1.083       .  S
C1498      C1499   1.417       .  A
C1499      C1500   1.401   1_545  A
C1499     Br1506   1.924   1_545  S
C1500      C1501   1.408   1_565  A
C1500      H1505   1.084       .  S
C1501      C1502   1.416       .  A
C1502     Br1503   1.917       .  S
C1507      C1508   1.404       .  A
C1507      C1512   1.394       .  A
C1507      H1514   1.083       .  S
C1508      C1509   1.413       .  A
C1509      C1510   1.392       .  A
C1509     Br1516   1.921       .  S
C1510      C1511   1.403       .  A
C1510      H1515   1.083       .  S
C1511      C1512   1.413       .  A
C1512     Br1513   1.921       .  S
C1517      C1518   1.410       .  A
C1517      C1522   1.412       .  A
C1517      H1524   1.083       .  S
C1518      C1519   1.411       .  A
C1519      C1520   1.402       .  A
C1519     Br1526   1.922       .  S
C1520      C1521   1.414       .  A
C1520      H1525   1.083       .  S
C1521      C1522   1.418       .  A
C1522     Br1523   1.918       .  S
C1527      C1528   1.400       .  A
C1527      C1532   1.406       .  A
C1527      H1534   1.083       .  S
C1528      C1529   1.430   1_565  A
C1529      C1530   1.403   1_545  A
C1529     Br1536   1.918       .  S
C1530      C1531   1.396       .  A
C1530      H1535   1.083   1_565  S
C1531      C1532   1.431       .  A
C1532     Br1533   1.925       .  S
