geometry optimzed in LAMMPS
_audit_creation_date              2020-12-01 
_audit_creation_method            'lammps2cif' 
_symmetry_space_group_name_H-M    'P1' 
_symmetry_Int_Tables_number       1 
_symmetry_cell_setting            triclinic 
loop_ 
_symmetry_equiv_pos_as_xyz 
  x,y,z 
_cell_length_a                    27.09571077 
_cell_length_b                    27.619129022640454 
_cell_length_c                    45.32881152543142 
_cell_angle_alpha                 90.408581365357 
_cell_angle_beta                  90.64581721528224 
_cell_angle_gamma                 89.77636066687475 
loop_ 
_atom_site_label 
_atom_site_type_symbol 
_atom_site_fract_x 
_atom_site_fract_y 
_atom_site_fract_z 
_atom_site_charge 
Fe1        Fe  0.44046837  0.78737686  0.07371404     1.65800
Fe2        Fe  0.51633345  0.69807788  0.09346990     1.73200
Fe3        Fe  0.56021550  0.79363256  0.05506935     1.54400
O4          O  0.51487971  0.81881513  0.52151214    -0.82200
O5          O  0.57575254  0.72307559  0.11754202    -0.80500
O6          O  0.44309345  0.78060222  0.52744893    -0.84700
O7          O  0.46371638  0.85806353  0.07134880    -0.79500
O8          O  0.57627732  0.73194047  0.02981255    -0.81300
O9          O  0.47177296  0.71817326  0.12835465    -0.84100
C10         C  0.50327852  0.88109678  0.07624946     0.96700
C11         C  0.47748347  0.79652089  0.51102593     1.04100
O12         O  0.50660846  0.76012380  0.07463566    -1.13000
O13         O  0.45910266  0.66653731  0.06984295    -0.75500
O14         O  0.40245471  0.72255650  0.07596315    -0.79000
O15         O  0.54524110  0.85945408  0.07737745    -0.79700
C16         C  0.41475394  0.68059611  0.06753617     0.95600
O17         O  0.44404959  0.79283138  0.11937071    -0.77600
O18         O  0.56162025  0.67205499  0.06092053    -0.82800
C19         C  0.61403956  0.74489157  0.10889597     0.98200
C20         C  0.57677666  0.68702851  0.03629800     1.04100
O21         O  0.61405753  0.77206228  0.08620895    -0.78500
C22         C  0.45747626  0.75963762  0.13729772     1.02400
Fe23       Fe  0.77575120  0.44759367  0.20065516     1.65800
Fe24       Fe  0.68652349  0.52293053  0.18195538     1.73200
Fe25       Fe  0.78806611  0.56433104  0.21860221     1.54400
O26         O  0.80678435  0.51812922  0.25306492    -0.82200
O27         O  0.70994989  0.58242678  0.15893025    -0.80500
O28         O  0.76436594  0.44971144  0.24621095    -0.84700
O29         O  0.84768843  0.46710471  0.20745260    -0.79500
O30         O  0.72784046  0.58777673  0.24338778    -0.81300
O31         O  0.70708443  0.47988766  0.14627799    -0.84100
C32         C  0.87250095  0.50213564  0.19802034     0.96700
C33         C  0.78143677  0.48320357  0.26316943     1.04100
O34         O  0.75018098  0.51303981  0.19987606    -1.13000
O35         O  0.65550714  0.46643216  0.20519562    -0.75500
O36         O  0.71012662  0.41194882  0.19370414    -0.79000
O37         O  0.85225873  0.54377560  0.19529211    -0.79700
C38         C  0.66945051  0.42280918  0.20507827     0.95600
O39         O  0.78367925  0.45267298  0.15510811    -0.77600
O40         O  0.66293191  0.56667391  0.21553077    -0.82800
C41         C  0.73734157  0.61799109  0.16606097     0.98200
C42         C  0.68156407  0.58806950  0.23779847     1.04100
O43         O  0.76919096  0.61638002  0.18699504    -0.78500
C44         C  0.74931088  0.46601309  0.13715961     1.02400
Fe45       Fe  0.44524008  0.18524383  0.31979674     1.65800
Fe46       Fe  0.51999301  0.27610421  0.33612038     1.73200
Fe47       Fe  0.56374774  0.17402547  0.30279761     1.54400
O48         O  0.54430697  0.11146771  0.32740692    -0.82200
O49         O  0.55914865  0.29852136  0.30037573    -0.80500
O50         O  0.46623042  0.11487945  0.31418902    -0.84700
O51         O  0.44506866  0.19302167  0.27436896    -0.79500
O52         O  0.61753151  0.19518868  0.33426312    -0.81300
O53         O  0.45924867  0.30389043  0.31386478    -0.84100
C54         C  0.47881387  0.17523372  0.25787641     0.96700
C55         C  0.50210955  0.09106557  0.32441768     1.04100
O56         O  0.51108870  0.21199079  0.31999368    -1.13000
O57         O  0.48144050  0.25506434  0.37357506    -0.75500
O58         O  0.45335271  0.17990340  0.36475522    -0.79000
O59         O  0.51633248  0.15296132  0.26857189    -0.79700
C60         C  0.46853028  0.21299741  0.38248929     0.95600
O61         O  0.40668601  0.24857685  0.32592064    -0.77600
O62         O  0.58388986  0.25825796  0.35805722    -0.82800
C63         C  0.58011741  0.27807177  0.27863674     0.98200
C64         C  0.61975249  0.22993131  0.35301528     1.04100
O65         O  0.58458496  0.23213293  0.27633071    -0.78500
C66         C  0.41548777  0.28877449  0.31454510     1.02400
Fe67       Fe  0.77647136  0.52708499  0.45188044     1.65800
Fe68       Fe  0.68674869  0.44971982  0.43596139     1.73200
Fe69       Fe  0.79519974  0.40939371  0.46611476     1.54400
O70         O  0.85633770  0.43205384  0.44143941    -0.82200
O71         O  0.66864087  0.40762571  0.47145983    -0.80500
O72         O  0.84972689  0.50908172  0.45349555    -0.84700
O73         O  0.76872421  0.51637549  0.99613906    -0.79500
O74         O  0.77467791  0.35850891  0.43342155    -0.81300
O75         O  0.65708686  0.50602625  0.46087181    -0.84100
C76         C  0.78754832  0.48270175  0.01202839     0.96700
C77         C  0.87559817  0.47389431  0.44467289     1.04100
O78         O  0.75290329  0.46078749  0.45067398    -1.13000
O79         O  0.70289408  0.49099830  0.39851330    -0.75500
O80         O  0.77726489  0.52418846  0.40641375    -0.79000
O81         O  0.80938931  0.44592359  0.00092437    -0.79700
C82         C  0.74410143  0.50717066  0.38894290     0.95600
O83         O  0.70949901  0.56286155  0.45046974    -0.77600
O84         O  0.70697638  0.38959557  0.41189682    -0.82800
C85         C  0.69255665  0.38618318  0.49183924     0.98200
C86         C  0.73876584  0.35608642  0.41494846     1.04100
O87         O  0.72879403  0.37866605  0.99136572    -0.78500
C88         C  0.67001161  0.54980969  0.46221885     1.02400
Fe89       Fe  0.51482046  0.18284084  0.06864267     1.65800
Fe90       Fe  0.44091372  0.27125241  0.08952583     1.73200
Fe91       Fe  0.39436525  0.17423876  0.05234961     1.54400
O92         O  0.44845322  0.16020452  0.51836485    -0.82200
O93         O  0.38279940  0.24772872  0.11415615    -0.80500
O94         O  0.52183875  0.19558294  0.52512082    -0.84700
O95         O  0.49386561  0.11270884  0.06180184    -0.79500
O96         O  0.37097470  0.23564354  0.02885007    -0.81300
O97         O  0.48819403  0.24954016  0.12344898    -0.84100
C98         C  0.45737038  0.08791490  0.06958923     0.96700
C99         C  0.48722076  0.17999730  0.50819124     1.04100
O100        O  0.44862096  0.20921921  0.07052215    -1.13000
O101        O  0.49603622  0.30127317  0.06452356    -0.75500
O102        O  0.55193434  0.24722134  0.07491607    -0.79000
O103        O  0.41521869  0.10819408  0.07341045    -0.79700
C104        C  0.54016807  0.28698948  0.06332795     0.95600
O105        O  0.51076269  0.17353537  0.11378842    -0.77600
O106        O  0.39377271  0.29707671  0.05780311    -0.82800
C107        C  0.34499346  0.22273122  0.10743912     0.98200
C108        C  0.37208459  0.28087782  0.03495011     1.04100
O109        O  0.34391346  0.19269326  0.08579272    -0.78500
C110        C  0.49816916  0.20661751  0.13209330     1.02400
Fe111      Fe  0.17765673  0.52272097  0.19846154     1.65800
Fe112      Fe  0.27269056  0.44866931  0.18527248     1.73200
Fe113      Fe  0.16849445  0.40581829  0.21772093     1.54400
O114        O  0.14264113  0.45264279  0.25017439    -0.82200
O115        O  0.25597552  0.38394894  0.16463377    -0.80500
O116        O  0.18036529  0.52346762  0.24410401    -0.84700
O117        O  0.10594575  0.49968121  0.19871265    -0.79500
O118        O  0.22711295  0.38837124  0.24572645    -0.81300
O119        O  0.25288251  0.48376382  0.14641249    -0.84100
C120        C  0.08303427  0.46122367  0.19235191     0.96700
C121        C  0.16314097  0.49049543  0.26064757     1.04100
O122        O  0.20633413  0.45799560  0.19986783    -1.13000
O123        O  0.30052275  0.51018124  0.20581534    -0.75500
O124        O  0.24150123  0.56271979  0.19782204    -0.79000
O125        O  0.10537145  0.42043800  0.19184076    -0.79700
C126        C  0.28450737  0.55317991  0.20668313     0.95600
O127        O  0.17801005  0.51732799  0.15313524    -0.77600
O128        O  0.29507491  0.41273884  0.22254489    -0.82800
C129        C  0.22744312  0.34884246  0.16998146     0.98200
C130        C  0.27382653  0.39287148  0.24410810     1.04100
O131        O  0.19208070  0.35183311  0.18822151    -0.78500
C132        C  0.21223049  0.50115122  0.13646314     1.02400
Fe133      Fe  0.18047146  0.45422225  0.44777830     1.65800
Fe134      Fe  0.27403807  0.52625582  0.43183047     1.73200
Fe135      Fe  0.17278657  0.57124941  0.46628958     1.54400
O136        O  0.10835110  0.55531689  0.44187934    -0.82200
O137        O  0.29927111  0.56746801  0.46679883    -0.80500
O138        O  0.10887213  0.47701632  0.45126381    -0.84700
O139        O  0.18713475  0.44795438  0.99556884    -0.79500
O140        O  0.19417844  0.62270428  0.43541522    -0.81300
O141        O  0.30216578  0.46797490  0.45489001    -0.84100
C142        C  0.16947191  0.48076008  0.01247358     0.96700
C143        C  0.08604516  0.51482950  0.44356680     1.04100
O144        O  0.20916550  0.51844518  0.44825272    -1.13000
O145        O  0.25253010  0.48549880  0.39500630    -0.75500
O146        O  0.17545309  0.46038476  0.40243912    -0.79000
O147        O  0.14486798  0.51652756  0.00250548    -0.79700
C148        C  0.20966950  0.47419306  0.38520357     0.95600
O149        O  0.24514085  0.41543338  0.44372635    -0.77600
O150        O  0.25378748  0.58733225  0.40901339    -0.82800
C151        C  0.27969153  0.58719951  0.48918797     0.98200
C152        C  0.22642927  0.62334071  0.41518064     1.04100
O153        O  0.22870854  0.58020164  0.99692897    -0.78500
C154        C  0.28639924  0.42504883  0.45518569     1.02400
Fe155      Fe  0.51864592  0.79033351  0.32378112     1.65800
Fe156      Fe  0.44273910  0.70035936  0.33918703     1.73200
Fe157      Fe  0.39951613  0.80026276  0.30378718     1.54400
O158        O  0.41537104  0.86336667  0.32895159    -0.82200
O159        O  0.39926787  0.67735746  0.30456004    -0.80500
O160        O  0.49584203  0.86103324  0.32130309    -0.84700
O161        O  0.51757183  0.78418293  0.27786509    -0.79500
O162        O  0.34549937  0.77744077  0.33332073    -0.81300
O163        O  0.50045991  0.67200141  0.31539549    -0.84100
C164        C  0.48359948  0.80196928  0.26131659     0.96700
C165        C  0.45741667  0.88446628  0.32814609     1.04100
O166        O  0.45238283  0.76399488  0.32298216    -1.13000
O167        O  0.48573037  0.71841631  0.37597058    -0.75500
O168        O  0.51353200  0.79370125  0.36937413    -0.79000
O169        O  0.44700772  0.82484632  0.27182361    -0.79700
C170        C  0.49971042  0.75936622  0.38619842     0.95600
O171        O  0.55698105  0.72559703  0.32686201    -0.77600
O172        O  0.38191041  0.72214063  0.36224660    -0.82800
C173        C  0.38341161  0.69531250  0.28060823     0.98200
C174        C  0.34446954  0.74661267  0.35413642     1.04100
O175        O  0.38259667  0.74098207  0.27613739    -0.78500
C176        C  0.54457310  0.68621557  0.31486759     1.02400
C177        C  0.23597282  0.66899168  0.36896103    -0.20800
C178        C  0.23777709  0.66889525  0.39983634    -0.07400
C179        C  0.26461222  0.70560387  0.41484591     0.13500
C180        C  0.29418594  0.73734741  0.39865722    -0.20900
C181        C  0.29731124  0.73327813  0.36788488    -0.07400
C182        C  0.26494463  0.70110573  0.35273873     0.13500
C183        C  0.26391970  0.69577507  0.31960179    -0.24200
H184        H  0.21545676  0.64086465  0.35742043     0.14800
H185        H  0.31914009  0.76167554  0.41026082     0.14800
C186        C  0.26672336  0.70778819  0.44805852    -0.24200
H187        H  0.22548446  0.70058844  0.31135541     0.05000
H188        H  0.27704145  0.65903099  0.31326742     0.08200
H189        H  0.28696365  0.72279395  0.30835921     0.08200
H190        H  0.28950087  0.73854837  0.45621681     0.08200
H191        H  0.28326210  0.67394972  0.45676235     0.08200
H192        H  0.22890750  0.71232285  0.45685921     0.05000
C193        C  0.35655000  0.57890242  0.23736057    -0.20800
C194        C  0.31526123  0.59252325  0.22035886    -0.07400
C195        C  0.30215060  0.64249256  0.21949586     0.13500
C196        C  0.32672473  0.67570335  0.23824219    -0.20900
C197        C  0.36423787  0.66073095  0.25773958    -0.07400
C198        C  0.38127741  0.61200311  0.25585662     0.13500
C199        C  0.42579007  0.59400546  0.27294021    -0.24200
H200        H  0.36838148  0.54144712  0.23732691     0.14800
H201        H  0.31490701  0.71320947  0.23863351     0.14800
C202        C  0.26234025  0.66163281  0.19914270    -0.24200
H203        H  0.43650872  0.55672226  0.26617293     0.05000
H204        H  0.41787995  0.59276362  0.29686798     0.08200
H205        H  0.45778629  0.61790153  0.26882676     0.08200
H206        H  0.22562761  0.64846614  0.20601362     0.08200
H207        H  0.26987962  0.65008082  0.17610845     0.08200
H208        H  0.26071633  0.70182666  0.19952619     0.05000
C209        C  0.14968165  0.47205963  0.34300307    -0.20800
C210        C  0.19869991  0.47904213  0.35289728    -0.07400
C211        C  0.23428372  0.49479704  0.33212054     0.13500
C212        C  0.22002208  0.50151409  0.30258040    -0.20900
C213        C  0.17169757  0.49277442  0.29282170    -0.07400
C214        C  0.13581326  0.47857569  0.31333639     0.13500
C215        C  0.08260854  0.47141971  0.30423066    -0.24200
H216        H  0.12168056  0.46154186  0.35855705     0.14800
H217        H  0.24748224  0.51177887  0.28658406     0.14800
C218        C  0.28758986  0.50440078  0.34019524    -0.24200
H219        H  0.07912595  0.44039278  0.28869826     0.05000
H220        H  0.06833093  0.50474651  0.29349903     0.08200
H221        H  0.05893537  0.46371232  0.32347353     0.08200
H222        H  0.30957986  0.51520037  0.32081364     0.08200
H223        H  0.30485191  0.47116097  0.34938481     0.08200
H224        H  0.29004847  0.53471055  0.35634707     0.05000
C225        C  0.22882197  0.48930390  0.05333435    -0.20800
C226        C  0.18006486  0.48060048  0.04423798    -0.07400
C227        C  0.14193506  0.48151978  0.06509054     0.13500
C228        C  0.15369240  0.48980340  0.09485610    -0.20900
C229        C  0.20260452  0.49820380  0.10426220    -0.07400
C230        C  0.24071434  0.49850958  0.08304363     0.13500
C231        C  0.29347002  0.51059626  0.09105702    -0.24200
H232        H  0.25742659  0.49097871  0.03687412     0.14800
H233        H  0.12442622  0.48887113  0.11094818     0.14800
C234        C  0.08892331  0.47321581  0.05601442    -0.24200
H235        H  0.30995997  0.48159691  0.10484322     0.05000
H236        H  0.29484133  0.54571767  0.10311775     0.08200
H237        H  0.31676454  0.51399427  0.07116589     0.08200
H238        H  0.08549705  0.43757313  0.04470327     0.08200
H239        H  0.07624680  0.50218758  0.04085505     0.08200
H240        H  0.06402422  0.47335738  0.07531731     0.05000
C241        C  0.33643799  0.30318210  0.98549169    -0.20800
C242        C  0.34817729  0.31692718  0.01473882    -0.07400
C243        C  0.33827575  0.36559965  0.02373007     0.13500
C244        C  0.35923910  0.40001815  0.48513076    -0.20900
C245        C  0.31553261  0.38639327  0.47041783    -0.07400
C246        C  0.31536336  0.33624273  0.96533888     0.13500
C247        C  0.30359645  0.31976524  0.93431796    -0.24200
H248        H  0.34400334  0.26647044  0.97824179     0.14800
H249        H  0.37314121  0.43643041  0.48263845     0.14800
C250        C  0.34633471  0.38380895  0.05493949    -0.24200
H251        H  0.32360856  0.34263285  0.91837818     0.05000
H252        H  0.25899151  0.32370395  0.43261287     0.08200
H253        H  0.31475439  0.28149412  0.93055226     0.08200
H254        H  0.46162576  0.36033724  0.51445913     0.08200
H255        H  0.32621077  0.36057279  0.07064133     0.08200
H256        H  0.44233601  0.42217601  0.51063924     0.05000
C257        C  0.23243222  0.29454467  0.12600533    -0.20800
C258        C  0.24086124  0.30168291  0.15628008    -0.07400
C259        C  0.27432880  0.27052934  0.17116370     0.13500
C260        C  0.30329368  0.23772809  0.15488137    -0.20900
C261        C  0.29960427  0.23519779  0.12401325    -0.07400
C262        C  0.26095390  0.26111612  0.10974639     0.13500
C263        C  0.25303196  0.25742880  0.07688540    -0.24200
H264        H  0.20673056  0.31825648  0.11458801     0.14800
H265        H  0.33278365  0.21803832  0.16591900     0.14800
C266        C  0.28332256  0.27535376  0.20389060    -0.24200
H267        H  0.22123264  0.27983099  0.06936145     0.05000
H268        H  0.24556750  0.21921645  0.07059248     0.08200
H269        H  0.28623097  0.27017985  0.06530233     0.08200
H270        H  0.31012143  0.24793454  0.21214072     0.08200
H271        H  0.24810517  0.27045015  0.21576259     0.08200
H272        H  0.29855700  0.31166735  0.20901213     0.05000
C273        C  0.94665817  0.53150347  0.44751426    -0.20800
C274        C  0.92946353  0.48449606  0.43994032    -0.07400
C275        C  0.96432725  0.45038435  0.42952914     0.13500
C276        C  0.01462841  0.46324840  0.42861447    -0.20900
C277        C  0.03184018  0.50903115  0.43827682    -0.07400
C278        C  0.99693636  0.54392824  0.44715930     0.13500
C279        C  0.01243279  0.59337918  0.45797853    -0.24200
H280        H  0.92083234  0.55876941  0.45507072     0.14800
H281        H  0.04121780  0.43635736  0.42143418     0.14800
C282        C  0.94946563  0.40017048  0.41989393    -0.24200
H283        H  0.98032471  0.61581582  0.46472559     0.05000
H284        H  0.03164522  0.61282577  0.44012500     0.08200
H285        H  0.03744215  0.58982409  0.47742390     0.08200
H286        H  0.92179088  0.40239091  0.40169389     0.08200
H287        H  0.93376711  0.38029939  0.43878118     0.08200
H288        H  0.98143239  0.37886778  0.41172666     0.05000
C289        C  0.62531524  0.39086302  0.52799620    -0.20800
C290        C  0.64969944  0.35881641  0.01081072    -0.07400
C291        C  0.65858501  0.31224764  0.02236228     0.13500
C292        C  0.62307546  0.29112089  0.04049410    -0.20900
C293        C  0.57833279  0.31484996  0.04719726    -0.07400
C294        C  0.59100231  0.36965864  0.54686780     0.13500
C295        C  0.55332182  0.40173781  0.56156333    -0.24200
H296        H  0.62190264  0.42895497  0.52263767     0.14800
H297        H  0.62970397  0.25480318  0.04850916     0.14800
C298        C  0.70406384  0.28352920  0.01452241    -0.24200
H299        H  0.55938485  0.44057401  0.55660712     0.05000
H300        H  0.55577827  0.39727470  0.58585742     0.08200
H301        H  0.51572558  0.39271966  0.55372829     0.08200
H302        H  0.73750926  0.30246946  0.02288450     0.08200
H303        H  0.70624768  0.27909523  0.99023922     0.08200
H304        H  0.70380217  0.24684907  0.02439982     0.05000
C305        C  0.51400560  0.95407800  0.33903749    -0.20800
C306        C  0.46511874  0.93790951  0.33340428    -0.07400
C307        C  0.42817482  0.97334320  0.32914787     0.13500
C308        C  0.44161084  0.02263727  0.32826139    -0.20900
C309        C  0.49138342  0.03847154  0.33085638    -0.07400
C310        C  0.52762125  0.00331544  0.33757412     0.13500
C311        C  0.58088714  0.01683486  0.34237595    -0.24200
H312        H  0.54272121  0.92758153  0.34337101     0.14800
H313        H  0.41258851  0.04891117  0.32427974     0.14800
C314        C  0.37490320  0.95972424  0.32423496    -0.24200
H315        H  0.60411168  0.98480261  0.34776356     0.05000
H316        H  0.58407054  0.04290982  0.36105077     0.08200
H317        H  0.59574669  0.03326086  0.32205463     0.08200
H318        H  0.36129232  0.93956781  0.34360197     0.08200
H319        H  0.37120344  0.93692425  0.30406404     0.08200
H320        H  0.35094068  0.99207609  0.32127127     0.05000
C321        C  0.38337682  0.36634949  0.29427292    -0.20800
C322        C  0.37453293  0.31765664  0.30123076    -0.07400
C323        C  0.32847516  0.29674972  0.29281064     0.13500
C324        C  0.29448426  0.32416306  0.27636780    -0.20900
C325        C  0.30564489  0.37099345  0.26709505    -0.07400
C326        C  0.34977036  0.39316640  0.27714418     0.13500
C327        C  0.36187853  0.44492792  0.26978147    -0.24200
H328        H  0.41780864  0.38302734  0.30117614     0.14800
H329        H  0.26033272  0.30759607  0.26884994     0.14800
C330        C  0.31533756  0.24486577  0.29928826    -0.24200
H331        H  0.39532367  0.45771716  0.28185812     0.05000
H332        H  0.33067154  0.46893287  0.27591850     0.08200
H333        H  0.36920672  0.44841368  0.24588125     0.08200
H334        H  0.31465168  0.23912625  0.32349194     0.08200
H335        H  0.34242178  0.22000945  0.28886220     0.08200
H336        H  0.27827906  0.23509617  0.29041742     0.05000
C337        C  0.69653908  0.27644829  0.35201742    -0.20800
C338        C  0.66696549  0.24375087  0.36757455    -0.07400
C339        C  0.67308160  0.24082025  0.39848369     0.13500
C340        C  0.70469919  0.27360199  0.41322768    -0.20900
C341        C  0.72860493  0.31087571  0.39803664    -0.07400
C342        C  0.72635306  0.31070349  0.36687451     0.13500
C343        C  0.75192757  0.34860588  0.34889767    -0.24200
H344        H  0.69165943  0.27944229  0.32831900     0.14800
H345        H  0.70578352  0.27363412  0.43704280     0.14800
C346        C  0.64356514  0.20616911  0.41666579    -0.24200
H347        H  0.77687436  0.33067637  0.33288401     0.05000
H348        H  0.77451113  0.37356126  0.36273916     0.08200
H349        H  0.72406638  0.37032562  0.33657346     0.08200
H350        H  0.61969574  0.22681418  0.43205049     0.08200
H351        H  0.66904155  0.18286171  0.42969294     0.08200
H352        H  0.61983254  0.18221329  0.40284951     0.05000
C353        C  0.46853708  0.23106228  0.18177924    -0.20800
C354        C  0.49282343  0.19610848  0.16421603    -0.07400
C355        C  0.50791806  0.15208605  0.17755194     0.13500
C356        C  0.49980643  0.14534120  0.20781854    -0.20900
C357        C  0.47688635  0.18095293  0.22535962    -0.07400
C358        C  0.46062078  0.22430382  0.21199337     0.13500
C359        C  0.43708782  0.26476440  0.22952829    -0.24200
H360        H  0.45567874  0.26448395  0.17191230     0.14800
H361        H  0.51255733  0.11218191  0.21810060     0.14800
C362        C  0.53340043  0.11221085  0.16058002    -0.24200
H363        H  0.42802087  0.29653603  0.21556713     0.05000
H364        H  0.46275124  0.27716266  0.24728080     0.08200
H365        H  0.40212398  0.25207057  0.23933704     0.08200
H366        H  0.56757847  0.12628773  0.15049737     0.08200
H367        H  0.50826223  0.09760554  0.14319950     0.08200
H368        H  0.54413374  0.08149788  0.17501290     0.05000
C369        C  0.50525060  0.23237509  0.43170105    -0.20800
C370        C  0.47397099  0.20235572  0.41455507    -0.07400
C371        C  0.45189715  0.16188865  0.42813728     0.13500
C372        C  0.46018516  0.15401056  0.45829189    -0.20900
C373        C  0.48958077  0.18522571  0.47565639    -0.07400
C374        C  0.51331276  0.22451530  0.46195060     0.13500
C375        C  0.54563987  0.25949232  0.47900471    -0.24200
H376        H  0.52365002  0.26254290  0.42142289     0.14800
H377        H  0.44225315  0.12360332  0.46863974     0.14800
C378        C  0.41843611  0.12724843  0.41161920    -0.24200
H379        H  0.56051164  0.28833539  0.46468865     0.05000
H380        H  0.57761361  0.23990606  0.48882067     0.08200
H381        H  0.52403133  0.27744045  0.49668359     0.08200
H382        H  0.43955113  0.10729220  0.39453745     0.08200
H383        H  0.38731607  0.14743234  0.40127227     0.08200
H384        H  0.40234771  0.09972318  0.42641253     0.05000
C385        C  0.94385690  0.44410695  0.19774027    -0.20800
C386        C  0.92611367  0.49156565  0.19193069    -0.07400
C387        C  0.96009309  0.52581515  0.18132523     0.13500
C388        C  0.01037324  0.51291384  0.17911725    -0.20900
C389        C  0.02848929  0.46683919  0.18754646    -0.07400
C390        C  0.99410474  0.43147330  0.19590415     0.13500
C391        C  0.01006549  0.38108759  0.20443568    -0.24200
H392        H  0.91850583  0.41651200  0.20497398     0.14800
H393        H  0.03631422  0.54010624  0.17197328     0.14800
C394        C  0.94429241  0.57619940  0.17282087    -0.24200
H395        H  0.02876100  0.36325145  0.18557072     0.05000
H396        H  0.97823682  0.35816845  0.21055934     0.08200
H397        H  0.03559428  0.38275570  0.22374740     0.08200
H398        H  0.97559768  0.59769803  0.16435452     0.08200
H399        H  0.92949325  0.59564576  0.19234202     0.08200
H400        H  0.91564017  0.57433036  0.15514585     0.05000
C401        C  0.66159135  0.33697535  0.22101832    -0.20800
C402        C  0.64052699  0.38379598  0.21957462    -0.07400
C403        C  0.59552276  0.39246500  0.23436872     0.13500
C404        C  0.57553949  0.35578710  0.25179224    -0.20900
C405        C  0.59919385  0.31071042  0.25542459    -0.07400
C406        C  0.64176227  0.30050347  0.23876438     0.13500
C407        C  0.66805437  0.25240344  0.24060479    -0.24200
H408        H  0.69535011  0.32926946  0.20928219     0.14800
H409        H  0.54178341  0.36314165  0.26366367     0.14800
C410        C  0.56852446  0.44027619  0.23279504    -0.24200
H411        H  0.70157254  0.25140238  0.22673175     0.05000
H412        H  0.64318388  0.22310293  0.23269489     0.08200
H413        H  0.67973244  0.24537936  0.26375009     0.08200
H414        H  0.56027923  0.44932945  0.20942451     0.08200
H415        H  0.59105715  0.46928997  0.24324606     0.08200
H416        H  0.53286702  0.43929103  0.24462969     0.05000
C417        C  0.71627750  0.48634382  0.33737186    -0.20800
C418        C  0.75420902  0.50315814  0.35643788    -0.07400
C419        C  0.80192096  0.51025051  0.34434469     0.13500
C420        C  0.80976677  0.50066609  0.31425888    -0.20900
C421        C  0.77200033  0.48384567  0.29546348    -0.07400
C422        C  0.72447047  0.47680401  0.30721305     0.13500
C423        C  0.68173167  0.46113744  0.28787147    -0.24200
H424        H  0.67975136  0.48040653  0.34604691     0.14800
H425        H  0.84595465  0.50694415  0.30511269     0.14800
C426        C  0.84551216  0.52748381  0.36255387    -0.24200
H427        H  0.64684741  0.45885805  0.30040435     0.05000
H428        H  0.68933330  0.42477871  0.27832757     0.08200
H429        H  0.67602142  0.48759025  0.26981128     0.08200
H430        H  0.85420016  0.50095662  0.38016700     0.08200
H431        H  0.83740565  0.56358683  0.37230762     0.08200
H432        H  0.87929052  0.53128748  0.34911805     0.05000
C433        C  0.73103631  0.48062808  0.05374367    -0.20800
C434        C  0.77982352  0.48279425  0.04420193    -0.07400
C435        C  0.81871895  0.47702032  0.06488178     0.13500
C436        C  0.80767668  0.47028306  0.09486684    -0.20900
C437        C  0.75856010  0.46806329  0.10469011    -0.07400
C438        C  0.71963782  0.47274484  0.08342375     0.13500
C439        C  0.66575559  0.46818309  0.09110893    -0.24200
H440        H  0.70142754  0.48337116  0.03750822     0.14800
H441        H  0.83771790  0.46743637  0.11074597     0.14800
C442        C  0.87181463  0.47904473  0.05545546    -0.21000
H443        H  0.64158442  0.46785144  0.07113549     0.05000
H444        H  0.65387606  0.49947617  0.10480658     0.08200
H445        H  0.65951436  0.43371790  0.10294424     0.08200
H446        H  0.89762047  0.47585949  0.07456425     0.08200
H447        H  0.87894831  0.51406735  0.04443781     0.08200
H448        H  0.87992587  0.44888206  0.03993764     0.05000
C449        C  0.65882658  0.61906721  0.28791086    -0.20800
C450        C  0.64705568  0.61411606  0.25768881    -0.07400
C451        C  0.60169117  0.63367704  0.24694087     0.13500
C452        C  0.56910792  0.65537022  0.26671536    -0.20900
C453        C  0.58050070  0.65971469  0.29670703    -0.07400
C454        C  0.62616373  0.64216651  0.30753559     0.13500
C455        C  0.63978044  0.64677043  0.33972342    -0.24200
H456        H  0.69339038  0.60434593  0.29627441     0.14800
H457        H  0.53442699  0.67020778  0.25853598     0.14800
C458        C  0.58733666  0.63359973  0.21461528    -0.24200
H459        H  0.64175189  0.68556681  0.34614889     0.05000
H460        H  0.67621359  0.62988636  0.34464058     0.08200
H461        H  0.61158464  0.62854268  0.35328586     0.08200
H462        H  0.57939247  0.59618908  0.20692908     0.08200
H463        H  0.61737742  0.64939340  0.20140581     0.08200
H464        H  0.55348502  0.65542668  0.21032678     0.05000
C465        C  0.45763980  0.95430166  0.09467125    -0.20800
C466        C  0.49762064  0.93500240  0.07850015    -0.07400
C467        C  0.52347715  0.96629047  0.05979183     0.13500
C468        C  0.50823990  0.01491718  0.05715141    -0.20900
C469        C  0.46768084  0.03440030  0.07285024    -0.07400
C470        C  0.44281427  0.00344513  0.09238941     0.13500
C471        C  0.40133799  0.02201111  0.11118757    -0.24200
H472        H  0.43708287  0.93031136  0.10878092     0.14800
H473        H  0.52819656  0.03787584  0.04215370     0.14800
C474        C  0.56573003  0.94804454  0.04138141    -0.24200
H475        H  0.38695140  0.99342199  0.12586555     0.05000
H476        H  0.37040335  0.03467138  0.09692001     0.08200
H477        H  0.41464186  0.05242727  0.12527979     0.08200
H478        H  0.55284091  0.91851290  0.02646787     0.08200
H479        H  0.59566519  0.93420665  0.05599860     0.08200
H480        H  0.58142457  0.97706455  0.02752981     0.05000
C481        C  0.38974861  0.61553255  0.53942327    -0.20800
C482        C  0.37728520  0.64871408  0.05281935    -0.07400
C483        C  0.32556397  0.65573882  0.05545753     0.13500
C484        C  0.29310901  0.63076137  0.03628425    -0.20900
C485        C  0.31055795  0.59848711  0.01463209    -0.07400
C486        C  0.35866794  0.58968693  0.52001492     0.13500
C487        C  0.37520115  0.54053483  0.50915028    -0.24200
H488        H  0.42523691  0.60005454  0.54543566     0.14800
H489        H  0.25386553  0.63804275  0.03754260     0.14800
C490        C  0.30387335  0.68907548  0.07843682    -0.24200
H491        H  0.41043320  0.52899141  0.51976356     0.05000
H492        H  0.38137375  0.54123738  0.48501501     0.08200
H493        H  0.34684601  0.51308504  0.51432920     0.08200
H494        H  0.31264398  0.72730864  0.07343101     0.08200
H495        H  0.31858414  0.67943734  0.10060357     0.08200
H496        H  0.26302222  0.68618754  0.07912981     0.05000
C497        C  0.61522143  0.66809341  0.49194226    -0.20800
C498        C  0.59574118  0.65026638  0.01465033    -0.07400
C499        C  0.58944665  0.59939638  0.01844850     0.13500
C500        C  0.61082896  0.56693168  0.99835603    -0.20900
C501        C  0.64115339  0.58555606  0.47984792    -0.07400
C502        C  0.63599419  0.63479124  0.47185938     0.13500
C503        C  0.65114441  0.65232905  0.44189347    -0.24200
H504        H  0.61178276  0.70571269  0.48556681     0.14800
H505        H  0.60774957  0.52836751  0.00223338     0.14800
C506        C  0.56072540  0.57787064  0.04351802    -0.24200
H507        H  0.64096309  0.69090779  0.43851408     0.05000
H508        H  0.63238034  0.63054003  0.42443982     0.08200
H509        H  0.69170603  0.64928211  0.43941701     0.08200
H510        H  0.52256358  0.59255762  0.04345695     0.08200
H511        H  0.57948886  0.58573740  0.06490033     0.08200
H512        H  0.55780683  0.53784110  0.04164323     0.05000
C513        C  0.69755884  0.69785809  0.16861882    -0.20800
C514        C  0.72517482  0.66468025  0.15182833    -0.07400
C515        C  0.72604728  0.66982458  0.12090567     0.13500
C516        C  0.69484896  0.70418984  0.10729862    -0.20900
C517        C  0.66103251  0.73159886  0.12390359    -0.07400
C518        C  0.66473495  0.73060720  0.15502604     0.13500
C519        C  0.63192077  0.76123484  0.17431169    -0.24200
H520        H  0.69706323  0.69435073  0.19243124     0.14800
H521        H  0.69226738  0.70490970  0.08341051     0.14800
C522        C  0.75748933  0.63685715  0.10225224    -0.24200
H523        H  0.65505721  0.78340542  0.18955606     0.05000
H524        H  0.60764403  0.73764139  0.18749878     0.08200
H525        H  0.60834683  0.78636758  0.16130017     0.08200
H526        H  0.79676240  0.64046015  0.10913089     0.08200
H527        H  0.75441085  0.64595973  0.07846980     0.08200
H528        H  0.74591713  0.59862974  0.10489340     0.05000
C529        C  0.48865537  0.74007769  0.46939225    -0.20800
C530        C  0.47715480  0.78706161  0.47898795    -0.07400
C531        C  0.47567397  0.82507463  0.45840351     0.13500
C532        C  0.48487444  0.81507733  0.42851940    -0.20900
C533        C  0.49617427  0.76793979  0.41861907    -0.07400
C534        C  0.49834108  0.72988045  0.43957639     0.13500
C535        C  0.51249317  0.67876466  0.43116114    -0.24200
H536        H  0.49173998  0.71143015  0.48558135     0.14800
H537        H  0.48227708  0.84427782  0.41269631     0.14800
C538        C  0.46383127  0.87612314  0.46797063    -0.24200
H539        H  0.51758155  0.65546608  0.45085527     0.05000
H540        H  0.54782326  0.67887248  0.41900720     0.08200
H541        H  0.48308540  0.66205301  0.41730800     0.08200
H542        H  0.49226154  0.88934072  0.48386308     0.08200
H543        H  0.42716863  0.87706285  0.47866229     0.08200
H544        H  0.46277550  0.90133412  0.44898402     0.05000
C545        C  0.47012863  0.81799824  0.17868467    -0.20800
C546        C  0.46054218  0.77009446  0.16952683    -0.07400
C547        C  0.46027588  0.73295453  0.19109886     0.13500
C548        C  0.47162419  0.74455203  0.22056094    -0.20900
C549        C  0.48222781  0.79204600  0.22939615    -0.07400
C550        C  0.48023062  0.82946886  0.20839629     0.13500
C551        C  0.48923252  0.88138551  0.21728403    -0.24200
H552        H  0.47070473  0.84662375  0.16243636     0.14800
H553        H  0.46997791  0.71654283  0.23719814     0.14800
C554        C  0.44615109  0.68136299  0.18382964    -0.24200
H555        H  0.48776317  0.90592897  0.19798128     0.05000
H556        H  0.52626576  0.88468375  0.22782889     0.08200
H557        H  0.46072336  0.89363906  0.23308384     0.08200
H558        H  0.47480705  0.66385347  0.17007199     0.08200
H559        H  0.40993052  0.68071662  0.17213330     0.08200
H560        H  0.44269157  0.65909625  0.20402377     0.05000
Fe561      Fe  0.44003865  0.79361679  0.57278097     1.65800
Fe562      Fe  0.51320295  0.70560691  0.59569007     1.73200
Fe563      Fe  0.55967426  0.79911275  0.55695872     1.54400
O564        O  0.51385492  0.81630077  0.02127373    -0.82200
O565        O  0.57036307  0.73184362  0.62107932    -0.80500
O566        O  0.44147119  0.77992421  0.02794315    -0.84700
O567        O  0.46301157  0.86302279  0.56621252    -0.79500
O568        O  0.57801538  0.73621626  0.53325252    -0.81300
O569        O  0.46572579  0.72848590  0.62886208    -0.84100
C570        C  0.50021818  0.88693697  0.57468511     0.96700
C571        C  0.47547951  0.79544078  0.01120691     1.04100
O572        O  0.50555139  0.76646989  0.57569273    -1.13000
O573        O  0.45816003  0.67422582  0.56996980    -0.75500
O574        O  0.40305368  0.72961253  0.57900508    -0.79000
O575        O  0.54199626  0.86562379  0.57846164    -0.79700
C576        C  0.41435180  0.68961978  0.56748338     0.95600
O577        O  0.44307690  0.80447304  0.61822505    -0.77600
O578        O  0.56134129  0.67783990  0.56506177    -0.82800
C579        C  0.60975115  0.75160687  0.61238336     0.98200
C580        C  0.57852714  0.69162356  0.54063324     1.04100
O581        O  0.61127216  0.77853314  0.58958899    -0.78500
C582        C  0.45304259  0.77115204  0.63686952     1.02400
Fe583      Fe  0.76915740  0.44510453  0.69934425     1.65800
Fe584      Fe  0.67970798  0.52087500  0.68113492     1.73200
Fe585      Fe  0.78165172  0.56172359  0.71769208     1.54400
O586        O  0.80080807  0.51533255  0.75198250    -0.82200
O587        O  0.70293652  0.58057590  0.65821538    -0.80500
O588        O  0.75936654  0.44619006  0.74469726    -0.84700
O589        O  0.84094280  0.46439546  0.70571898    -0.79500
O590        O  0.72140837  0.58498851  0.74266051    -0.81300
O591        O  0.70055178  0.47813400  0.64508902    -0.84100
C592        C  0.86604318  0.49970103  0.69701618     0.96700
C593        C  0.77717553  0.47902587  0.76179242     1.04100
O594        O  0.74353659  0.51065397  0.69897833    -1.13000
O595        O  0.64893365  0.46441000  0.70470951    -0.75500
O596        O  0.70318418  0.40994713  0.69272093    -0.79000
O597        O  0.84598494  0.54144940  0.69435152    -0.79700
C598        C  0.66324557  0.42090007  0.70496172     0.95600
O599        O  0.77692345  0.45083836  0.65421466    -0.77600
O600        O  0.65607259  0.56470220  0.71484153    -0.82800
C601        C  0.73054552  0.61595023  0.66542913     0.98200
C602        C  0.67508050  0.58574359  0.73715807     1.04100
O603        O  0.76256736  0.61392317  0.68625381    -0.78500
C604        C  0.74329277  0.46513396  0.63619072     1.02400
Fe605      Fe  0.43573839  0.18464678  0.81841129     1.65800
Fe606      Fe  0.51239893  0.27332351  0.83645239     1.73200
Fe607      Fe  0.55442219  0.17282108  0.80124901     1.54400
O608        O  0.53610315  0.11126993  0.82630238    -0.82200
O609        O  0.55627170  0.29585477  0.80240268    -0.80500
O610        O  0.45714672  0.11361493  0.81415076    -0.84700
O611        O  0.43643613  0.19252683  0.77306412    -0.79500
O612        O  0.60886690  0.19461913  0.83187896    -0.81300
O613        O  0.45478029  0.30357464  0.81272593    -0.84100
C614        C  0.47050159  0.17482512  0.75693485     0.96700
C615        C  0.49409932  0.09046418  0.82392461     1.04100
O616        O  0.50208463  0.21035979  0.81912230    -1.13000
O617        O  0.46911538  0.25411770  0.87225503    -0.75500
O618        O  0.44149643  0.17924347  0.86347464    -0.79000
O619        O  0.50618898  0.15046830  0.76794232    -0.79700
C620        C  0.45631469  0.21222004  0.88130031     0.95600
O621        O  0.39924010  0.24969706  0.82312051    -0.77600
O622        O  0.57250968  0.25038782  0.86037588    -0.82800
C623        C  0.57394691  0.27643658  0.77927602     0.98200
C624        C  0.60967999  0.22515999  0.85314332     1.04100
O625        O  0.57393323  0.23080516  0.77468364    -0.78500
C626        C  0.41036674  0.29003284  0.81245703     1.02400
Fe627      Fe  0.77426385  0.51954107  0.95058380     1.65800
Fe628      Fe  0.68250849  0.44532458  0.93288946     1.73200
Fe629      Fe  0.78735363  0.40177260  0.96560339     1.54400
O630        O  0.85035373  0.42214377  0.94154393    -0.82200
O631        O  0.66054672  0.40298445  0.96736792    -0.80500
O632        O  0.84661338  0.49923450  0.95392885    -0.84700
O633        O  0.77291670  0.52270169  0.49741121    -0.79500
O634        O  0.76628761  0.35116118  0.93304756    -0.81300
O635        O  0.65347774  0.50249171  0.95691404    -0.84100
C636        C  0.79244074  0.48888257  0.51284463     0.96700
C637        C  0.87097014  0.46346607  0.94457059     1.04100
O638        O  0.74793234  0.45431559  0.94930042    -1.13000
O639        O  0.70174731  0.48691373  0.89654427    -0.75500
O640        O  0.77773086  0.51552397  0.90517402    -0.79000
O641        O  0.81684771  0.45419148  0.50120696    -0.79700
C642        C  0.74413076  0.50029445  0.88741420     0.95600
O643        O  0.70864866  0.55729020  0.94739646    -0.77600
O644        O  0.70245994  0.38503656  0.90903127    -0.82800
C645        C  0.68195529  0.38124878  0.98858281     0.98200
C646        C  0.73184693  0.34995350  0.91360339     1.04100
O647        O  0.73947352  0.38389790  0.49289523    -0.78500
C648        C  0.66778974  0.54589022  0.95808691     1.02400
Fe649      Fe  0.52227436  0.18753576  0.57045121     1.65800
Fe650      Fe  0.44991191  0.28015753  0.58832024     1.73200
Fe651      Fe  0.40259925  0.18208382  0.55246751     1.54400
O652        O  0.43877305  0.15691468  0.01657889    -0.82200
O653        O  0.38776950  0.26147071  0.61089437    -0.80500
O654        O  0.51156614  0.19403942  0.02355203    -0.84700
O655        O  0.49851960  0.11778200  0.56515547    -0.79500
O656        O  0.38347077  0.24197069  0.52699031    -0.81300
O657        O  0.49140224  0.25724828  0.62470316    -0.84100
C658        C  0.46063516  0.09554295  0.57344412     0.96700
C659        C  0.47674830  0.17854032  0.00670861     1.04100
O660        O  0.45704222  0.21677384  0.57071233    -1.13000
O661        O  0.50953804  0.30733086  0.56590751    -0.75500
O662        O  0.56263759  0.25008120  0.57604161    -0.79000
O663        O  0.41940178  0.11789079  0.57588258    -0.79700
C664        C  0.55317277  0.29143469  0.56590756     0.95600
O665        O  0.51590399  0.18140192  0.61535753    -0.77600
O666        O  0.40781426  0.30589304  0.55374260    -0.82800
C667        C  0.35039377  0.23579471  0.60451340     0.98200
C668        C  0.38725444  0.28759838  0.53098077     1.04100
O669        O  0.35034058  0.20391057  0.58395349    -0.78500
C670        C  0.50169980  0.21425889  0.63332031     1.02400
Fe671      Fe  0.16692461  0.52529809  0.69963765     1.65800
Fe672      Fe  0.26485280  0.45731493  0.68392293     1.73200
Fe673      Fe  0.16466004  0.40781712  0.71657342     1.54400
O674        O  0.13788394  0.45185088  0.75019430    -0.82200
O675        O  0.24979423  0.39466665  0.66065390    -0.80500
O676        O  0.17214074  0.52443856  0.74551701    -0.84700
O677        O  0.09661303  0.49926852  0.70132852    -0.79500
O678        O  0.22477925  0.39219942  0.74368672    -0.81300
O679        O  0.24245363  0.49633161  0.64683822    -0.84100
C680        C  0.07610871  0.46052075  0.69305174     0.96700
C681        C  0.15739289  0.48961832  0.76164660     1.04100
O682        O  0.19890263  0.46228407  0.69949728    -1.13000
O683        O  0.28913358  0.51712368  0.70764004    -0.75500
O684        O  0.22925119  0.56736061  0.69743814    -0.79000
O685        O  0.10040603  0.42089943  0.69133711    -0.79700
C686        C  0.27095247  0.55923751  0.70874565     0.95600
O687        O  0.16440820  0.51993968  0.65418754    -0.77600
O688        O  0.29053964  0.41771836  0.71903130    -0.82800
C689        C  0.22465190  0.35728816  0.66646791     0.98200
C690        C  0.27127631  0.39705465  0.74095719     1.04100
O691        O  0.19062203  0.35708167  0.68570387    -0.78500
C692        C  0.19932964  0.50720165  0.63701885     1.02400
Fe693      Fe  0.17550041  0.44808888  0.95031242     1.65800
Fe694      Fe  0.26620498  0.52220619  0.93280200     1.73200
Fe695      Fe  0.16728231  0.56435187  0.97027125     1.54400
O696        O  0.10235925  0.54867917  0.94537686    -0.82200
O697        O  0.29246089  0.56243432  0.96803501    -0.80500
O698        O  0.10450178  0.47103345  0.95638653    -0.84700
O699        O  0.18750671  0.45441208  0.49355299    -0.79500
O700        O  0.18951777  0.61888722  0.94110480    -0.81300
O701        O  0.29598522  0.46390224  0.95535806    -0.84100
C702        C  0.17079495  0.48809316  0.51029518     0.96700
C703        C  0.08091010  0.50749443  0.94713575     1.04100
O704        O  0.20286650  0.51291523  0.95041787    -1.13000
O705        O  0.24221788  0.48266150  0.89570403    -0.75500
O706        O  0.16645312  0.45486099  0.90534926    -0.79000
O707        O  0.15024162  0.52600169  0.49984066    -0.79700
C708        C  0.19883331  0.46965754  0.88725236     0.95600
O709        O  0.24026913  0.41007633  0.94386450    -0.77600
O710        O  0.24422529  0.58389566  0.91106629    -0.82800
C711        C  0.27507154  0.57867348  0.99208932     0.98200
C712        C  0.22019938  0.62065370  0.91995648     1.04100
O713        O  0.23312201  0.58997352  0.49258281    -0.78500
C714        C  0.28068637  0.42087605  0.95598709     1.02400
Fe715      Fe  0.51301306  0.78898920  0.82409776     1.65800
Fe716      Fe  0.43857413  0.69806278  0.84052145     1.73200
Fe717      Fe  0.39212743  0.79986453  0.80849321     1.54400
O718        O  0.41198783  0.86256709  0.83271188    -0.82200
O719        O  0.39410138  0.67576808  0.80607573    -0.80500
O720        O  0.49102893  0.85981267  0.82179895    -0.84700
O721        O  0.50915306  0.78388319  0.77820384    -0.79500
O722        O  0.34155542  0.77844423  0.84078090    -0.81300
O723        O  0.49542543  0.67069636  0.81555698    -0.84100
C724        C  0.47375341  0.80103471  0.76241259     0.96700
C725        C  0.45363288  0.88354267  0.82992591     1.04100
O726        O  0.44669986  0.76238850  0.82485071    -1.13000
O727        O  0.48293679  0.71648715  0.87675778    -0.75500
O728        O  0.51002874  0.79207877  0.86971290    -0.79000
O729        O  0.43605383  0.82171482  0.77358151    -0.79700
C730        C  0.49674324  0.75775800  0.88670292     0.95600
O731        O  0.55196526  0.72445578  0.82645068    -0.77600
O732        O  0.37832091  0.71758586  0.86504852    -0.82800
C733        C  0.37268610  0.69622482  0.78445442     0.98200
C734        C  0.34156879  0.74517560  0.86023984     1.04100
O735        O  0.36929777  0.74206170  0.78205648    -0.78500
C736        C  0.53942635  0.68500691  0.81462219     1.02400
C737        C  0.22836309  0.67375839  0.87629454    -0.20800
C738        C  0.23413135  0.66772204  0.90681437    -0.07400
C739        C  0.26643246  0.69921977  0.92250006     0.13500
C740        C  0.29715897  0.73080883  0.90687327    -0.20900
C741        C  0.29571165  0.73236437  0.87597036    -0.07400
C742        C  0.25827320  0.70623047  0.86075353     0.13500
C743        C  0.25340946  0.70844545  0.82768077    -0.24200
H744        H  0.20373007  0.64973773  0.86421370     0.14800
H745        H  0.32585435  0.75060888  0.91858756     0.14800
C746        C  0.27273110  0.69581767  0.95545143    -0.24200
H747        H  0.22224844  0.68604225  0.81927546     0.05000
H748        H  0.28765875  0.69466241  0.81746113     0.08200
H749        H  0.24682134  0.74642738  0.82077894     0.08200
H750        H  0.28817947  0.65996088  0.96117030     0.08200
H751        H  0.23653419  0.70093583  0.96629739     0.08200
H752        H  0.29845028  0.72375166  0.96426468     0.05000
C753        C  0.34795172  0.59079736  0.73213367    -0.20800
C754        C  0.29832738  0.59896968  0.72423909    -0.07400
C755        C  0.27534441  0.64284612  0.73367864     0.13500
C756        C  0.30161080  0.67510139  0.75204642    -0.20900
C757        C  0.34970247  0.66471078  0.76166538    -0.07400
C758        C  0.37389750  0.62297638  0.75060962     0.13500
C759        C  0.42735478  0.61239694  0.75774473    -0.24200
H760        H  0.36636254  0.55821921  0.72448123     0.14800
H761        H  0.28362244  0.70764199  0.76012299     0.14800
C762        C  0.22272417  0.65573504  0.72570747    -0.24200
H763        H  0.44115399  0.58028857  0.74541135     0.05000
H764        H  0.43223126  0.60476251  0.78157758     0.08200
H765        H  0.45031886  0.64381522  0.75159864     0.08200
H766        H  0.19720354  0.62803637  0.73435428     0.08200
H767        H  0.21858124  0.65841290  0.70138134     0.08200
H768        H  0.21146171  0.69118624  0.73526367     0.05000
C769        C  0.21010201  0.51088493  0.83926966    -0.20800
C770        C  0.18569300  0.47487655  0.85536382    -0.07400
C771        C  0.14825931  0.44761141  0.84100915     0.13500
C772        C  0.13804475  0.45573748  0.81097119    -0.20900
C773        C  0.16391591  0.49037918  0.79447723    -0.07400
C774        C  0.19987437  0.51909255  0.80923465     0.13500
C775        C  0.22894400  0.55750283  0.79363066    -0.24200
H776        H  0.23768286  0.53305412  0.85031483     0.14800
H777        H  0.11015700  0.43374234  0.80009433     0.14800
C778        C  0.11987637  0.40873888  0.85665496    -0.24200
H779        H  0.25528759  0.57628387  0.80873875     0.05000
H780        H  0.20347074  0.58536495  0.78456544     0.08200
H781        H  0.25075648  0.54084144  0.77560024     0.08200
H782        H  0.09695287  0.42510300  0.87427215     0.08200
H783        H  0.14589417  0.38187165  0.86631741     0.08200
H784        H  0.09450277  0.38901043  0.84141360     0.05000
C785        C  0.14031832  0.51108843  0.55976118    -0.20800
C786        C  0.17548243  0.48578816  0.54296144    -0.07400
C787        C  0.21784543  0.46696472  0.55735500     0.13500
C788        C  0.22443845  0.47533404  0.58776853    -0.20900
C789        C  0.18998071  0.50205653  0.60454100    -0.07400
C790        C  0.14669332  0.51940244  0.59015573     0.13500
C791        C  0.10714987  0.54749215  0.60612391    -0.24200
H792        H  0.10777492  0.52556806  0.54877829     0.14800
H793        H  0.25708420  0.46061685  0.59847470     0.14800
C794        C  0.25727731  0.43969805  0.54077235    -0.24200
H795        H  0.07747705  0.56011903  0.59088604     0.05000
H796        H  0.12341903  0.57999539  0.61694749     0.08200
H797        H  0.08947749  0.52414457  0.62275925     0.08200
H798        H  0.27247442  0.46287070  0.52317880     0.08200
H799        H  0.24148553  0.40628668  0.53078155     0.08200
H800        H  0.28841364  0.42868593  0.55542740     0.05000
C801        C  0.32442834  0.30601866  0.49213084    -0.20800
C802        C  0.36563511  0.32116356  0.50871234    -0.07400
C803        C  0.38434722  0.36841052  0.50417266     0.13500
C804        C  0.31876798  0.39849410  0.00327432    -0.20900
C805        C  0.30681529  0.38459560  0.97437001    -0.07400
C806        C  0.29903591  0.33775400  0.47311753     0.13500
C807        C  0.25441392  0.31854824  0.45669784    -0.24200
H808        H  0.31066129  0.26960159  0.49499214     0.14800
H809        H  0.31113024  0.43532822  0.01022301     0.14800
C810        C  0.43104704  0.38617228  0.51893408    -0.24200
H811        H  0.24905696  0.27922859  0.46044635     0.05000
H812        H  0.26331494  0.32255319  0.92997270     0.08200
H813        H  0.22054501  0.33728385  0.46436847     0.08200
H814        H  0.38633413  0.38441106  0.06045853     0.08200
H815        H  0.42548430  0.39019841  0.54302861     0.08200
H816        H  0.33245885  0.42136378  0.05799354     0.05000
C817        C  0.23553391  0.30614067  0.62162218    -0.20800
C818        C  0.24096960  0.31142738  0.65229607    -0.07400
C819        C  0.27466349  0.28063506  0.66741695     0.13500
C820        C  0.30627937  0.25027557  0.65122748    -0.20900
C821        C  0.30447987  0.24882334  0.62031726    -0.07400
C822        C  0.26642074  0.27464710  0.60549363     0.13500
C823        C  0.26150462  0.27281022  0.57236747    -0.24200
H824        H  0.21004408  0.32978454  0.60997399     0.14800
H825        H  0.33545797  0.23080946  0.66272193     0.14800
C826        C  0.28167281  0.28210299  0.70046017    -0.24200
H827        H  0.25525315  0.23488232  0.56502123     0.05000
H828        H  0.29558304  0.28672285  0.56214559     0.08200
H829        H  0.23002349  0.29517033  0.56432458     0.08200
H830        H  0.25453125  0.30572944  0.71161868     0.08200
H831        H  0.31936279  0.29521185  0.70605282     0.08200
H832        H  0.27722101  0.24510116  0.70944683     0.05000
C833        C  0.94045647  0.52187103  0.93790529    -0.20800
C834        C  0.92475781  0.47293242  0.93903592    -0.07400
C835        C  0.96123714  0.43644087  0.93804664     0.13500
C836        C  0.01139049  0.44971173  0.93820639    -0.20900
C837        C  0.02711448  0.49859666  0.94038284    -0.07400
C838        C  0.99069309  0.53512999  0.93900325     0.13500
C839        C  0.00400497  0.58800615  0.93989197    -0.24200
H840        H  0.91305571  0.55053382  0.93756054     0.14800
H841        H  0.03870568  0.42097692  0.93802262     0.14800
C842        C  0.94812076  0.38348297  0.93816207    -0.24200
H843        H  0.97079838  0.61162383  0.93856318     0.05000
H844        H  0.02786408  0.59668334  0.92090641     0.08200
H845        H  0.02370131  0.59665609  0.96086967     0.08200
H846        H  0.92480358  0.37470696  0.91856312     0.08200
H847        H  0.92799015  0.37471549  0.95862847     0.08200
H848        H  0.98142334  0.35995668  0.93736654     0.05000
C849        C  0.60628260  0.38356870  0.01854389    -0.20800
C850        C  0.66341087  0.36356970  0.51527465    -0.07400
C851        C  0.66960509  0.31466041  0.52320972     0.13500
C852        C  0.63431286  0.29293590  0.54115764    -0.20900
C853        C  0.59355489  0.31916581  0.55198019    -0.07400
C854        C  0.57037285  0.36233501  0.03634207     0.13500
C855        C  0.52422970  0.39105157  0.04283569    -0.24200
H856        H  0.59983112  0.41957508  0.00990231     0.14800
H857        H  0.63749328  0.25452488  0.54555597     0.14800
C858        C  0.71175490  0.28459814  0.51165990    -0.24200
H859        H  0.52596819  0.42828036  0.03379152     0.05000
H860        H  0.51934606  0.39434394  0.06705673     0.08200
H861        H  0.49161543  0.37319179  0.03256213     0.08200
H862        H  0.74734288  0.30000283  0.51954222     0.08200
H863        H  0.71082146  0.28428596  0.48724853     0.08200
H864        H  0.70991194  0.24651930  0.51927986     0.05000
C865        C  0.51079973  0.95382174  0.83683614    -0.20800
C866        C  0.46151835  0.93705896  0.83433448    -0.07400
C867        C  0.42345957  0.97195554  0.83250188     0.13500
C868        C  0.43577685  0.02144675  0.83120344    -0.20900
C869        C  0.48531346  0.03789657  0.83084212    -0.07400
C870        C  0.52320020  0.00322923  0.83478489     0.13500
C871        C  0.57683933  0.01735587  0.83575787    -0.24200
H872        H  0.54052945  0.92773848  0.83912477     0.14800
H873        H  0.40593291  0.04744710  0.82922926     0.14800
C874        C  0.36992014  0.95762868  0.83055775    -0.24200
H875        H  0.60140902  0.98550787  0.83899500     0.05000
H876        H  0.58359475  0.04286366  0.85439776     0.08200
H877        H  0.58712256  0.03459179  0.81466068     0.08200
H878        H  0.36335930  0.93509436  0.81052758     0.08200
H879        H  0.34513422  0.98967207  0.82914379     0.08200
H880        H  0.35974897  0.93703216  0.85051987     0.05000
C881        C  0.38520925  0.36581248  0.78691793    -0.20800
C882        C  0.37135356  0.32092115  0.79864224    -0.07400
C883        C  0.32168711  0.30531734  0.79468508     0.13500
C884        C  0.28933336  0.33273434  0.77713500    -0.20900
C885        C  0.30472641  0.37510050  0.76324651    -0.07400
C886        C  0.35263657  0.39322422  0.76943723     0.13500
C887        C  0.36982267  0.44153722  0.75810446    -0.24200
H888        H  0.42244021  0.37896601  0.79055087     0.14800
H889        H  0.25228029  0.31945478  0.77295265     0.14800
C890        C  0.30203941  0.25930845  0.80787456    -0.24200
H891        H  0.40628854  0.45179149  0.76764586     0.05000
H892        H  0.34295085  0.47027319  0.76421890     0.08200
H893        H  0.37403400  0.44022874  0.73380994     0.08200
H894        H  0.30686559  0.26031164  0.83222831     0.08200
H895        H  0.32134678  0.22739838  0.79837231     0.08200
H896        H  0.26202067  0.25447784  0.80318397     0.05000
C897        C  0.68909027  0.26719783  0.85232102    -0.20800
C898        C  0.65654695  0.23795294  0.86825378    -0.07400
C899        C  0.66027845  0.23760489  0.89935329     0.13500
C900        C  0.69257138  0.27000315  0.91375659    -0.20900
C901        C  0.71959300  0.30427798  0.89788596    -0.07400
C902        C  0.71950755  0.30139329  0.86678262     0.13500
C903        C  0.74867526  0.33678291  0.84888719    -0.24200
H904        H  0.68588218  0.26799189  0.82847248     0.14800
H905        H  0.69198831  0.27237031  0.93761140     0.14800
C906        C  0.62761443  0.20624656  0.91787592    -0.24200
H907        H  0.78838227  0.33397511  0.85497022     0.05000
H908        H  0.73569043  0.37430353  0.85320013     0.08200
H909        H  0.74476597  0.32953895  0.82483955     0.08200
H910        H  0.60403892  0.18182694  0.90427499     0.08200
H911        H  0.60333794  0.22943340  0.93167147     0.08200
H912        H  0.65086254  0.18333202  0.93254044     0.05000
C913        C  0.47379359  0.23870734  0.68341442    -0.20800
C914        C  0.49428445  0.20251954  0.66507852    -0.07400
C915        C  0.50224078  0.15559905  0.67700013     0.13500
C916        C  0.49092806  0.14714250  0.70663964    -0.20900
C917        C  0.47140460  0.18359005  0.72483814    -0.07400
C918        C  0.46226789  0.22994491  0.71297372     0.13500
C919        C  0.44252504  0.27107125  0.73157348    -0.24200
H920        H  0.46658128  0.27447528  0.67466970     0.14800
H921        H  0.49832742  0.11176396  0.71596937     0.14800
C922        C  0.52278875  0.11389035  0.65919579    -0.24200
H923        H  0.43898123  0.30515558  0.71885126     0.05000
H924        H  0.46787897  0.27814602  0.75051185     0.08200
H925        H  0.40531832  0.26184270  0.73980725     0.08200
H926        H  0.55961045  0.12348884  0.65052796     0.08200
H927        H  0.49712381  0.10460464  0.64077028     0.08200
H928        H  0.52756143  0.08070640  0.67265541     0.05000
C929        C  0.47799499  0.23958761  0.93228168    -0.20800
C930        C  0.46099589  0.20203352  0.91352945    -0.07400
C931        C  0.45367874  0.15535457  0.92576662     0.13500
C932        C  0.46196052  0.14845955  0.95605136    -0.20900
C933        C  0.47821631  0.18614737  0.97454774    -0.07400
C934        C  0.48675947  0.23227373  0.96247674     0.13500
C935        C  0.50309378  0.27447890  0.98146480    -0.24200
H936        H  0.48456218  0.27525672  0.92337728     0.14800
H937        H  0.45496825  0.11326661  0.96559984     0.14800
C938        C  0.43736164  0.11218158  0.90757204    -0.24200
H939        H  0.53974948  0.26652552  0.99150393     0.05000
H940        H  0.47581111  0.28125279  0.99913851     0.08200
H941        H  0.50655551  0.30826713  0.96852120     0.08200
H942        H  0.46517984  0.10383128  0.89045910     0.08200
H943        H  0.40086409  0.11955855  0.89714057     0.08200
H944        H  0.43340623  0.07916515  0.92118894     0.05000
C945        C  0.93849383  0.44388635  0.70177908    -0.20800
C946        C  0.91980765  0.48907525  0.69183075    -0.07400
C947        C  0.95266069  0.52048332  0.67745722     0.13500
C948        C  0.00304001  0.50767912  0.67566586    -0.20900
C949        C  0.02188112  0.46414106  0.68764998    -0.07400
C950        C  0.98861365  0.43117437  0.69993430     0.13500
C951        C  0.00603057  0.38384464  0.71282540    -0.24200
H952        H  0.91407649  0.41843715  0.71226241     0.14800
H953        H  0.02852876  0.53307486  0.66600704     0.14800
C954        C  0.93536598  0.56745349  0.66415219    -0.24200
H955        H  0.03293669  0.39073532  0.73102046     0.05000
H956        H  0.02374746  0.36153172  0.69541741     0.08200
H957        H  0.97507492  0.36259183  0.72193639     0.08200
H958        H  0.92120751  0.59190605  0.68167736     0.08200
H959        H  0.90578729  0.56026674  0.64755681     0.08200
H960        H  0.96576440  0.58654403  0.65288497     0.05000
C961        C  0.65954199  0.33718106  0.72493654    -0.20800
C962        C  0.63571250  0.38225855  0.72079039    -0.07400
C963        C  0.58903180  0.38978481  0.73395798     0.13500
C964        C  0.56910427  0.35335629  0.75168705    -0.20900
C965        C  0.59434165  0.30966338  0.75698192    -0.07400
C966        C  0.63971283  0.30107513  0.74291585     0.13500
C967        C  0.66877109  0.25517500  0.74801442    -0.24200
H968        H  0.69515999  0.33061781  0.71503775     0.14800
H969        H  0.53387570  0.35954461  0.76221193     0.14800
C970        C  0.55996734  0.43601003  0.73006022    -0.24200
H971        H  0.70458893  0.25547789  0.73634392     0.05000
H972        H  0.64747730  0.22355980  0.73970404     0.08200
H973        H  0.67665562  0.25083986  0.77194089     0.08200
H974        H  0.55351044  0.44283933  0.70621574     0.08200
H975        H  0.58018411  0.46681447  0.74030755     0.08200
H976        H  0.52334686  0.43418919  0.74076874     0.05000
C977        C  0.71537674  0.48001363  0.83629987    -0.20800
C978        C  0.75421392  0.49554163  0.85509002    -0.07400
C979        C  0.80201394  0.50084846  0.84286472     0.13500
C980        C  0.80870604  0.49232475  0.81257761    -0.20900
C981        C  0.76972291  0.47750875  0.79404485    -0.07400
C982        C  0.72252517  0.47071588  0.80615100     0.13500
C983        C  0.67901062  0.45563756  0.78721544    -0.24200
H984        H  0.67882720  0.47492755  0.84516348     0.14800
H985        H  0.84475542  0.49796489  0.80307173     0.14800
C986        C  0.84664151  0.51505977  0.86113174    -0.24200
H987        H  0.64453814  0.45330295  0.80014630     0.05000
H988        H  0.68607805  0.41937565  0.77739962     0.08200
H989        H  0.67276876  0.48239269  0.76937343     0.08200
H990        H  0.85376102  0.48761181  0.87845409     0.08200
H991        H  0.84073883  0.55125721  0.87132317     0.08200
H992        H  0.88049705  0.51728273  0.84762372     0.05000
C993        C  0.73253593  0.48733727  0.55299764    -0.20800
C994        C  0.78213380  0.48631435  0.54473885    -0.07400
C995        C  0.81877465  0.47599776  0.56620019     0.13500
C996        C  0.80478535  0.46816296  0.59557659    -0.20900
C997        C  0.75487113  0.46914146  0.60408920    -0.07400
C998        C  0.71819649  0.47828762  0.58208558     0.13500
C999        C  0.66369006  0.47741018  0.58838751    -0.24200
H1000       H  0.70447351  0.49356641  0.53616684     0.14800
H1001       H  0.83333709  0.46177958  0.61204778     0.14800
C1002       C  0.87268451  0.47439312  0.55840372    -0.21000
H1003       H  0.64129582  0.48032699  0.56787031     0.05000
H1004       H  0.65342472  0.50844465  0.60276777     0.08200
H1005       H  0.65377744  0.44263488  0.59889728     0.08200
H1006       H  0.88353109  0.50923600  0.54831599     0.08200
H1007       H  0.87982529  0.44433709  0.54264737     0.08200
H1008       H  0.89650388  0.46842460  0.57816165     0.05000
C1009       C  0.65093476  0.61338241  0.78775774    -0.20800
C1010       C  0.64100888  0.61212926  0.75718301    -0.07400
C1011       C  0.59782279  0.63558709  0.74617406     0.13500
C1012       C  0.56566221  0.65817274  0.76589555    -0.20900
C1013       C  0.57504565  0.65853340  0.79623637    -0.07400
C1014       C  0.61834984  0.63649986  0.80745033     0.13500
C1015       C  0.62946817  0.63649403  0.84006639    -0.24200
H1016       H  0.68374525  0.59553141  0.79630512     0.14800
H1017       H  0.53304951  0.67658526  0.75750290     0.14800
C1018       C  0.58547423  0.63858528  0.71364966    -0.24200
H1019       H  0.59901763  0.61854802  0.85193870     0.05000
H1020       H  0.63323132  0.67427903  0.84826885     0.08200
H1021       H  0.66432986  0.61683250  0.84520868     0.08200
H1022       H  0.57604995  0.60222102  0.70475895     0.08200
H1023       H  0.61714326  0.65366805  0.70155240     0.08200
H1024       H  0.55311489  0.66243693  0.70929559     0.05000
C1025       C  0.44207230  0.95801884  0.57521437    -0.20800
C1026       C  0.49130994  0.94071767  0.57858495    -0.07400
C1027       C  0.52864985  0.97530695  0.58391912     0.13500
C1028       C  0.51629827  0.02505969  0.58421822    -0.20900
C1029       C  0.46766761  0.04220580  0.57871609    -0.07400
C1030       C  0.42994812  0.00769778  0.57488885     0.13500
C1031       C  0.37718821  0.02264717  0.56911902    -0.24200
H1032       H  0.41229688  0.93247843  0.57179561     0.14800
H1033       H  0.54564870  0.05106751  0.58780949     0.14800
C1034       C  0.58170652  0.96056474  0.58854507    -0.24200
H1035       H  0.35255966  0.99088653  0.56615935     0.05000
H1036       H  0.37479774  0.04450127  0.54868628     0.08200
H1037       H  0.36331688  0.04420766  0.58807476     0.08200
H1038       H  0.60591896  0.99235664  0.59253789     0.08200
H1039       H  0.59537949  0.94132454  0.56864735     0.08200
H1040       H  0.58493085  0.93661411  0.60804507     0.05000
C1041       C  0.39420535  0.61275760  0.03333621    -0.20800
C1042       C  0.37664375  0.66156116  0.55034355    -0.07400
C1043       C  0.32957332  0.68102878  0.54244973     0.13500
C1044       C  0.29825777  0.65459469  0.52355828    -0.20900
C1045       C  0.31262131  0.61000701  0.51152452    -0.07400
C1046       C  0.36188688  0.58733475  0.01446715     0.13500
C1047       C  0.38366115  0.54868807  0.99473345    -0.24200
H1048       H  0.43346845  0.60592198  0.03176287     0.14800
H1049       H  0.26294559  0.66997051  0.51702175     0.14800
C1050       C  0.31194767  0.73022213  0.55267312    -0.24200
H1051       H  0.42325343  0.54195705  0.99992987     0.05000
H1052       H  0.38155541  0.55995022  0.97131333     0.08200
H1053       H  0.36379294  0.51402678  0.99779122     0.08200
H1054       H  0.33701268  0.75877462  0.54455914     0.08200
H1055       H  0.31025195  0.73132966  0.57712786     0.08200
H1056       H  0.27437001  0.73886283  0.54413040     0.05000
C1057       C  0.62036802  0.66619453  0.98934493    -0.20800
C1058       C  0.59921786  0.65387067  0.52003371    -0.07400
C1059       C  0.60193176  0.60361426  0.52720436     0.13500
C1060       C  0.62274302  0.57062918  0.50704989    -0.20900
C1061       C  0.63864645  0.58288796  0.97450154    -0.07400
C1062       C  0.64184796  0.63335184  0.96927491     0.13500
C1063       C  0.66703841  0.65308375  0.94243584    -0.24200
H1064       H  0.62389104  0.70467883  0.98548944     0.14800
H1065       H  0.62637068  0.53284693  0.51309929     0.14800
C1066       C  0.58356183  0.58348076  0.55594823    -0.24200
H1067       H  0.66201432  0.69288468  0.94058973     0.05000
H1068       H  0.65115957  0.63612720  0.92218562     0.08200
H1069       H  0.70730172  0.64593132  0.94366173     0.08200
H1070       H  0.54352135  0.59110805  0.55823385     0.08200
H1071       H  0.60473246  0.59927218  0.57477415     0.08200
H1072       H  0.58782475  0.54360894  0.55703392     0.05000
C1073       C  0.69504751  0.69774663  0.66945205    -0.20800
C1074       C  0.71858950  0.66302059  0.65156806    -0.07400
C1075       C  0.71605346  0.66805170  0.62064250     0.13500
C1076       C  0.68621295  0.70469389  0.60835846    -0.20900
C1077       C  0.65615524  0.73408282  0.62623600    -0.07400
C1078       C  0.66234517  0.73210777  0.65719346     0.13500
C1079       C  0.63225363  0.76406393  0.67729537    -0.24200
H1080       H  0.69724795  0.69405400  0.69322802     0.14800
H1081       H  0.68136405  0.70597264  0.58458854     0.14800
C1082       C  0.74238989  0.63293459  0.60061150    -0.24200
H1083       H  0.64236891  0.75854004  0.70085164     0.05000
H1084       H  0.59235393  0.75599910  0.67467960     0.08200
H1085       H  0.63873428  0.80264236  0.67188172     0.08200
H1086       H  0.72805517  0.59572658  0.60362490     0.08200
H1087       H  0.78253650  0.63332915  0.60577538     0.08200
H1088       H  0.73723530  0.64250054  0.57701364     0.05000
C1089       C  0.48919467  0.73952328  0.96993419    -0.20800
C1090       C  0.47420778  0.78568378  0.97928395    -0.07400
C1091       C  0.46914764  0.82309347  0.95850613     0.13500
C1092       C  0.47835469  0.81319379  0.92859871    -0.20900
C1093       C  0.49336169  0.76683797  0.91900845    -0.07400
C1094       C  0.49916519  0.72953556  0.94017325     0.13500
C1095       C  0.51784301  0.67971559  0.93201956    -0.24200
H1096       H  0.49497098  0.71151181  0.98629345     0.14800
H1097       H  0.47298463  0.84170937  0.91255151     0.14800
C1098       C  0.45378402  0.87328024  0.96794591    -0.24200
H1099       H  0.52458458  0.65705661  0.95182785     0.05000
H1100       H  0.55326852  0.68270396  0.92009468     0.08200
H1101       H  0.49027267  0.66044072  0.91806774     0.08200
H1102       H  0.45059274  0.89815036  0.94886210     0.08200
H1103       H  0.48144617  0.88853624  0.98365661     0.08200
H1104       H  0.41735041  0.87175159  0.97886043     0.05000
C1105       C  0.47987844  0.82177815  0.67966019    -0.20800
C1106       C  0.45299514  0.78159408  0.66900872    -0.07400
C1107       C  0.43471928  0.74773573  0.68947975     0.13500
C1108       C  0.44539876  0.75386779  0.71957095    -0.20900
C1109       C  0.47250969  0.79352785  0.73015660    -0.07400
C1110       C  0.48952629  0.82826215  0.71008217     0.13500
C1111       C  0.51812133  0.87165344  0.72080692    -0.24200
H1112       H  0.49482177  0.84729722  0.66405819     0.14800
H1113       H  0.43092986  0.72803864  0.73513095     0.14800
C1114       C  0.40249913  0.70550486  0.68062801    -0.24200
H1115       H  0.49516379  0.89347709  0.73612048     0.05000
H1116       H  0.52917290  0.89519541  0.70226317     0.08200
H1117       H  0.55206620  0.85950359  0.73259023     0.08200
H1118       H  0.42199193  0.67103261  0.68565162     0.08200
H1119       H  0.39180537  0.70569890  0.65697774     0.08200
H1120       H  0.36774567  0.70684239  0.69339614     0.05000
loop_ 
_geom_bond_atom_site_label_1 
_geom_bond_atom_site_label_2 
_geom_bond_distance 
_geom_bond_site_symmetry_2 
_ccdc_geom_bond_type 
Fe1          O17   2.075       .  S
Fe1           O7   2.058       .  S
Fe1          O14   2.073       .  S
Fe1         O566   2.084       .  S
Fe1          O12   1.941       .  S
Fe2           O5   2.054       .  S
Fe2           O9   2.072       .  S
Fe2          O13   2.066       .  S
Fe2          O18   2.054       .  S
Fe2          O12   1.936       .  S
Fe3          O21   2.106       .  S
Fe3           O8   2.093       .  S
Fe3          O15   2.114       .  S
Fe3         O564   2.069       .  S
Fe3          O12   1.950       .  S
O4         Fe563   2.077       .  S
O4           C11   1.273       .  A
O5           C19   1.269       .  A
O6         Fe561   2.086       .  S
O6           C11   1.280       .  A
O7           C10   1.265       .  A
O8           C20   1.277       .  A
O9           C22   1.273       .  A
C10          O15   1.283       .  A
C10         C466   1.499       .  S
C11         C530   1.474       .  S
O13          C16   1.265       .  A
O14          C16   1.262       .  A
C16         C482   1.495       .  S
O17          C22   1.278       .  A
O18          C20   1.266       .  A
C19          O21   1.277       .  A
C19         C517   1.483       .  S
C20         C498   1.500       .  S
C22         C546   1.489       .  S
Fe23         O39   2.084       .  S
Fe23         O29   2.044       .  S
Fe23         O36   2.056       .  S
Fe23         O28   2.092       .  S
Fe23         O34   1.934       .  S
Fe24         O27   2.059       .  S
Fe24         O31   2.080       .  S
Fe24         O35   2.075       .  S
Fe24         O40   2.043       .  S
Fe24         O34   1.918       .  S
Fe25         O43   2.095       .  S
Fe25         O30   2.090       .  S
Fe25         O37   2.119       .  S
Fe25         O26   2.081       .  S
Fe25         O34   1.938       .  S
O26          C33   1.277       .  A
O27          C41   1.271       .  A
O28          C33   1.283       .  A
O29          C32   1.260       .  A
O30          C42   1.276       .  A
O31          C44   1.277       .  A
C32          O37   1.278       .  A
C32         C386   1.509       .  S
C33         C421   1.489       .  S
O35          C38   1.261       .  A
O36          C38   1.256       .  A
C38         C402   1.495       .  S
O39          C44   1.284       .  A
O40          C42   1.267       .  A
C41          O43   1.276       .  A
C41         C514   1.480       .  S
C42         C450   1.486       .  S
C44         C437   1.497       .  S
Fe45         O61   2.053       .  S
Fe45         O51   2.072       .  S
Fe45         O58   2.054       .  S
Fe45         O50   2.038       .  S
Fe45         O56   1.934       .  S
Fe46         O49   2.048       .  S
Fe46         O53   2.069       .  S
Fe46         O57   2.090       .  S
Fe46         O62   2.047       .  S
Fe46         O56   1.926       .  S
Fe47         O65   2.094       .  S
Fe47         O52   2.109       .  S
Fe47         O59   2.084       .  S
Fe47         O48   2.134       .  S
Fe47         O56   1.935       .  S
O48          C55   1.282       .  A
O49          C63   1.271       .  A
O50          C55   1.258       .  A
O51          C54   1.282       .  A
O52          C64   1.279       .  A
O53          C66   1.259       .  A
C54          O59   1.279       .  A
C54         C357   1.484       .  S
C55         C309   1.514       .  S
O57          C60   1.284       .  A
O58          C60   1.279       .  A
C60         C370   1.491       .  S
O61          C66   1.252       .  A
O62          C64   1.267       .  A
C63          O65   1.278       .  A
C63         C405   1.489       .  S
C64         C338   1.483       .  S
C66         C322   1.489       .  S
Fe67         O83   2.063       .  S
Fe67         O80   2.062       .  S
Fe67         O72   2.045       .  S
Fe67        O633   2.072       .  S
Fe67         O78   1.942       .  S
Fe68         O71   2.057       .  S
Fe68         O75   2.080       .  S
Fe68         O79   2.103       .  S
Fe68         O84   2.056       .  S
Fe68         O78   1.930       .  S
Fe69         O74   2.107       .  S
Fe69         O70   2.109       .  S
Fe69        O647   2.076       .  S
Fe69        O641   2.088       .  S
Fe69         O78   1.950       .  S
O70          C77   1.277       .  A
O71          C85   1.271       .  A
O72          C77   1.261       .  A
O73        Fe627   2.075       .  S
O73          C76   1.281   1_556  A
O74          C86   1.278       .  A
O75          C88   1.261       .  A
C76          O81   1.277       .  A
C76         C434   1.476       .  S
C77         C274   1.508       .  S
O79          C82   1.285       .  A
O80          C82   1.280       .  A
O81        Fe629   2.089   1_554  S
C82         C418   1.505       .  S
O83          C88   1.256       .  A
O84          C86   1.269       .  A
C85         O647   1.273       .  A
C85         C850   1.475       .  S
C86         C341   1.486       .  S
O87        Fe629   2.085       .  S
O87         C645   1.276       .  A
C88         C501   1.490       .  S
Fe89        O105   2.069       .  S
Fe89         O95   2.041       .  S
Fe89        O102   2.063       .  S
Fe89        O654   2.070       .  S
Fe89        O100   1.936       .  S
Fe90         O93   2.051       .  S
Fe90         O97   2.080       .  S
Fe90        O101   2.065       .  S
Fe90        O106   2.043       .  S
Fe90        O100   1.924       .  S
Fe91        O109   2.111       .  S
Fe91         O96   2.101       .  S
Fe91        O103   2.136       .  S
Fe91        O652   2.082       .  S
Fe91        O100   1.935       .  S
O92        Fe651   2.079       .  S
O92          C99   1.278       .  A
O93         C107   1.271       .  A
O94        Fe649   2.068       .  S
O94          C99   1.279       .  A
O95          C98   1.260       .  A
O96         C108   1.278       .  A
O97         C110   1.278       .  A
C98         O103   1.283       .  A
C98         C469   1.511       .  S
C99         C373   1.485       .  S
O101        C104   1.259       .  A
O102        C104   1.259       .  A
C104        C293   1.492       .  S
O105        C110   1.278       .  A
O106        C108   1.265       .  A
C107        O109   1.281       .  A
C107        C261   1.486       .  S
C108        C242   1.498       .  S
C110        C354   1.495       .  S
Fe111       O127   2.059       .  S
Fe111       O117   2.047       .  S
Fe111       O124   2.057       .  S
Fe111       O116   2.069       .  S
Fe111       O122   1.948       .  S
Fe112       O115   2.061       .  S
Fe112       O119   2.081       .  S
Fe112       O123   2.072       .  S
Fe112       O128   2.050       .  S
Fe112       O122   1.938       .  S
Fe113       O131   2.098       .  S
Fe113       O118   2.079       .  S
Fe113       O125   2.103       .  S
Fe113       O114   2.078       .  S
Fe113       O122   1.957       .  S
O114        C121   1.272       .  A
O115        C129   1.269       .  A
O116        C121   1.277       .  A
O117        C120   1.262       .  A
O118        C130   1.275       .  A
O119        C132   1.279       .  A
C120        O125   1.277       .  A
C120        C389   1.499       .  S
C121        C213   1.475       .  S
O123        C126   1.263       .  A
O124        C126   1.256       .  A
C126        C194   1.498       .  S
O127        C132   1.280       .  A
O128        C130   1.269       .  A
C129        O131   1.275       .  A
C129        C258   1.485       .  S
C130        C325   1.476       .  S
C132        C229   1.482       .  S
Fe133       O149   2.060       .  S
Fe133       O146   2.066       .  S
Fe133       O138   2.045       .  S
Fe133       O699   2.081       .  S
Fe133       O144   1.939       .  S
Fe134       O137   2.057       .  S
Fe134       O141   2.064       .  S
Fe134       O145   2.086       .  S
Fe134       O150   2.055       .  S
Fe134       O144   1.930       .  S
Fe135       O140   2.090       .  S
Fe135       O136   2.103       .  S
Fe135       O713   2.077       .  S
Fe135       O707   2.074       .  S
Fe135       O144   1.938       .  S
O136        C143   1.276       .  A
O137        C151   1.269       .  A
O138        C143   1.261       .  A
O139       Fe693   2.072       .  S
O139        C142   1.278   1_556  A
O140        C152   1.274       .  A
O141        C154   1.262       .  A
C142        O147   1.272       .  A
C142        C226   1.465       .  S
C143        C277   1.495       .  S
O145        C148   1.278       .  A
O146        C148   1.280       .  A
O147       Fe695   2.074   1_554  S
C148        C210   1.498       .  S
O149        C154   1.256       .  A
O150        C152   1.270       .  A
C151        O713   1.275       .  A
C151       C1045   1.481       .  S
C152        C178   1.477       .  S
O153       Fe695   2.092       .  S
O153        C711   1.278       .  A
C154        C245   1.494       .  S
Fe155       O171   2.069       .  S
Fe155       O161   2.087       .  S
Fe155       O168   2.074       .  S
Fe155       O160   2.049       .  S
Fe155       O166   1.940       .  S
Fe156       O159   2.051       .  S
Fe156       O163   2.059       .  S
Fe156       O167   2.082       .  S
Fe156       O172   2.048       .  S
Fe156       O166   1.930       .  S
Fe157       O175   2.104       .  S
Fe157       O162   2.096       .  S
Fe157       O169   2.069       .  S
Fe157       O158   2.119       .  S
Fe157       O166   1.946       .  S
O158        C165   1.283       .  A
O159        C173   1.267       .  A
O160        C165   1.264       .  A
O161        C164   1.280       .  A
O162        C174   1.276       .  A
O163        C176   1.260       .  A
C164        O169   1.269       .  A
C164        C549   1.471       .  S
C165        C306   1.508       .  S
O167        C170   1.277       .  A
O168        C170   1.281       .  A
C170        C533   1.491       .  S
O171        C176   1.258       .  A
O172        C174   1.269       .  A
C173        O175   1.279       .  A
C173        C197   1.495       .  S
C174        C181   1.477       .  S
C176        C453   1.471       .  S
C177        C178   1.400       .  A
C177        C182   1.404       .  A
C177        H184   1.085       .  S
C178        C179   1.416       .  A
C179        C180   1.406       .  A
C179        C186   1.507       .  S
C180        C181   1.402       .  A
C180        H185   1.084       .  S
C181        C182   1.419       .  A
C182        C183   1.508       .  S
C183        H187   1.110       .  S
C183        H188   1.111       .  S
C183        H189   1.106       .  S
C186        H190   1.111       .  S
C186        H191   1.108       .  S
C186        H192   1.110       .  S
C193        C194   1.403       .  A
C193        C198   1.403       .  A
C193        H200   1.082       .  S
C194        C195   1.424       .  A
C195        C196   1.410       .  A
C195        C202   1.508       .  S
C196        C197   1.402       .  A
C196        H201   1.083       .  S
C197        C198   1.423       .  A
C198        C199   1.510       .  S
C199        H203   1.111       .  S
C199        H204   1.109       .  S
C199        H205   1.110       .  S
C202        H206   1.109       .  S
C202        H207   1.111       .  S
C202        H208   1.111       .  S
C209        C210   1.411       .  A
C209        C214   1.405       .  A
C209        H216   1.083       .  S
C210        C211   1.427       .  A
C211        C212   1.403       .  A
C211        C218   1.510       .  S
C212        C213   1.399       .  A
C212        H217   1.085       .  S
C213        C214   1.412       .  A
C214        C215   1.508       .  S
C215        H219   1.109       .  S
C215        H220   1.110       .  S
C215        H221   1.111       .  S
C218        H222   1.110       .  S
C218        H223   1.110       .  S
C218        H224   1.110       .  S
C225        C226   1.401       .  A
C225        C230   1.403       .  A
C225        H232   1.083       .  S
C226        C227   1.408       .  A
C227        C228   1.400       .  A
C227        C234   1.508       .  S
C228        C229   1.407       .  A
C228        H233   1.084       .  S
C229        C230   1.419       .  A
C230        C231   1.509       .  S
C231        H235   1.109       .  S
C231        H236   1.111       .  S
C231        H237   1.111       .  S
C234        H238   1.110       .  S
C234        H239   1.109       .  S
C234        H240   1.111       .  S
C241        C242   1.410   1_556  A
C241        C246   1.411       .  A
C241        H248   1.083       .  S
C242        C243   1.427       .  A
C243        C804   1.401       .  A
C243        C250   1.512       .  S
C244        C245   1.404       .  A
C244        C803   1.401       .  A
C244        H249   1.082       .  S
C245        C806   1.424       .  A
C246        C805   1.413       .  A
C246        C247   1.506       .  S
C247        H251   1.110       .  S
C247        H253   1.111       .  S
C247        H812   1.109       .  S
C250        H255   1.111       .  S
C250        H814   1.110       .  S
C250        H816   1.110       .  S
H252        C807   1.110       .  S
H254        C810   1.111       .  S
H256        C810   1.111       .  S
C257        C258   1.401       .  A
C257        C262   1.411       .  A
C257        H264   1.084       .  S
C258        C259   1.416       .  A
C259        C260   1.407       .  A
C259        C266   1.506       .  S
C260        C261   1.403       .  A
C260        H265   1.084       .  S
C261        C262   1.419       .  A
C262        C263   1.505       .  S
C263        H267   1.111       .  S
C263        H268   1.110       .  S
C263        H269   1.107       .  S
C266        H270   1.111       .  S
C266        H271   1.110       .  S
C266        H272   1.108       .  S
C273        C274   1.420       .  A
C273        C278   1.406       .  A
C273        H280   1.082       .  S
C274        C275   1.414       .  A
C275        C276   1.411   1_655  A
C275        C282   1.506       .  S
C276        C277   1.414       .  A
C276        H281   1.084       .  S
C277        C278   1.408   1_455  A
C278        C279   1.507   1_655  S
C279        H283   1.111   1_455  S
C279        H284   1.110       .  S
C279        H285   1.110       .  S
C282        H286   1.110       .  S
C282        H287   1.110       .  S
C282        H288   1.111       .  S
C289        C294   1.403       .  A
C289        C850   1.403       .  A
C289        H296   1.085       .  S
C290        C645   1.482   1_554  S
C290        C291   1.411       .  A
C290        C849   1.405       .  A
C291        C292   1.404       .  A
C291        C298   1.507       .  S
C292        C293   1.411       .  A
C292        H297   1.083       .  S
C293        C854   1.419       .  A
C294        C853   1.417       .  A
C294        C295   1.507       .  S
C295        H299   1.111       .  S
C295        H300   1.110       .  S
C295        H301   1.104       .  S
C298        H302   1.110       .  S
C298        H303   1.109   1_554  S
C298        H304   1.111       .  S
C305        C306   1.419       .  A
C305        C310   1.413   1_565  A
C305        H312   1.083       .  S
C306        C307   1.410       .  A
C307        C308   1.412   1_565  A
C307        C314   1.507       .  S
C308        C309   1.423       .  A
C308        H313   1.082       .  S
C309        C310   1.411       .  A
C310        C311   1.505       .  S
C311        H315   1.111   1_545  S
C311        H316   1.110       .  S
C311        H317   1.110       .  S
C314        H318   1.110       .  S
C314        H319   1.110       .  S
C314        H320   1.111       .  S
C321        C322   1.406       .  A
C321        C326   1.403       .  A
C321        H328   1.084       .  S
C322        C323   1.424       .  A
C323        C324   1.401       .  A
C323        C330   1.510       .  S
C324        C325   1.398       .  A
C324        H329   1.084       .  S
C325        C326   1.415       .  A
C326        C327   1.509       .  S
C327        H331   1.111       .  S
C327        H332   1.109       .  S
C327        H333   1.109       .  S
C330        H334   1.110       .  S
C330        H335   1.110       .  S
C330        H336   1.111       .  S
C337        C338   1.408       .  A
C337        C342   1.409       .  A
C337        H344   1.085       .  S
C338        C339   1.412       .  A
C339        C340   1.409       .  A
C339        C346   1.506       .  S
C340        C341   1.407       .  A
C340        H345   1.080       .  S
C341        C342   1.413       .  A
C342        C343   1.507       .  S
C343        H347   1.110       .  S
C343        H348   1.110       .  S
C343        H349   1.111       .  S
C346        H350   1.110       .  S
C346        H351   1.110       .  S
C346        H352   1.110       .  S
C353        C354   1.412       .  A
C353        C358   1.403       .  A
C353        H360   1.083       .  S
C354        C355   1.418       .  A
C355        C356   1.406       .  A
C355        C362   1.508       .  S
C356        C357   1.407       .  A
C356        H361   1.084       .  S
C357        C358   1.412       .  A
C358        C359   1.510       .  S
C359        H363   1.111       .  S
C359        H364   1.111       .  S
C359        H365   1.110       .  S
C362        H366   1.110       .  S
C362        H367   1.110       .  S
C362        H368   1.111       .  S
C369        C370   1.411       .  A
C369        C374   1.404       .  A
C369        H376   1.083       .  S
C370        C371   1.417       .  A
C371        C372   1.401       .  A
C371        C378   1.510       .  S
C372        C373   1.407       .  A
C372        H377   1.084       .  S
C373        C374   1.415       .  A
C374        C375   1.510       .  S
C375        H379   1.111       .  S
C375        H380   1.110       .  S
C375        H381   1.111       .  S
C378        H382   1.110       .  S
C378        H383   1.110       .  S
C378        H384   1.111       .  S
C385        C386   1.420       .  A
C385        C390   1.407       .  A
C385        H392   1.083       .  S
C386        C387   1.413       .  A
C387        C388   1.411   1_655  A
C387        C394   1.506       .  S
C388        C389   1.416       .  A
C388        H393   1.084       .  S
C389        C390   1.409   1_455  A
C390        C391   1.507   1_655  S
C391        H395   1.110       .  S
C391        H396   1.111   1_455  S
C391        H397   1.110       .  S
C394        H398   1.111       .  S
C394        H399   1.110       .  S
C394        H400   1.110       .  S
C401        C402   1.413       .  A
C401        C406   1.406       .  A
C401        H408   1.083       .  S
C402        C403   1.417       .  A
C403        C404   1.403       .  A
C403        C410   1.509       .  S
C404        C405   1.408       .  A
C404        H409   1.084       .  S
C405        C406   1.412       .  A
C406        C407   1.507       .  S
C407        H411   1.111       .  S
C407        H412   1.110       .  S
C407        H413   1.111       .  S
C410        H414   1.110       .  S
C410        H415   1.110       .  S
C410        H416   1.111       .  S
C417        C418   1.413       .  A
C417        C422   1.410       .  A
C417        H424   1.083       .  S
C418        C419   1.425       .  A
C419        C420   1.406       .  A
C419        C426   1.510       .  S
C420        C421   1.403       .  A
C420        H425   1.084       .  S
C421        C422   1.414       .  A
C422        C423   1.507       .  S
C423        H427   1.111       .  S
C423        H428   1.110       .  S
C423        H429   1.110       .  S
C426        H430   1.110       .  S
C426        H431   1.110       .  S
C426        H432   1.111       .  S
C433        C434   1.397       .  A
C433        C438   1.402       .  A
C433        H440   1.085       .  S
C434        C435   1.412       .  A
C435        C436   1.409       .  A
C435        C442   1.507       .  S
C436        C437   1.410       .  A
C436        H441   1.083       .  S
C437        C438   1.427       .  A
C438        C439   1.511       .  S
C439        H443   1.111       .  S
C439        H444   1.109       .  S
C439        H445   1.110       .  S
C442        H446   1.111       .  S
C442        H447   1.110       .  S
C442        H448   1.109       .  S
C449        C450   1.409       .  A
C449        C454   1.410       .  A
C449        H456   1.085       .  S
C450        C451   1.423       .  A
C451        C452   1.396       .  A
C451        C458   1.512       .  S
C452        C453   1.395       .  A
C452        H457   1.086       .  S
C453        C454   1.411       .  A
C454        C455   1.506       .  S
C455        H459   1.110       .  S
C455        H460   1.111       .  S
C455        H461   1.110       .  S
C458        H462   1.109       .  S
C458        H463   1.109       .  S
C458        H464   1.112       .  S
C465        C466   1.415       .  A
C465        C470   1.418   1_565  A
C465        H472   1.084       .  S
C466        C467   1.409       .  A
C467        C468   1.409   1_565  A
C467        C474   1.507       .  S
C468        C469   1.418       .  A
C468        H473   1.083       .  S
C469        C470   1.414       .  A
C470        C471   1.504       .  S
C471        H475   1.111   1_545  S
C471        H476   1.110       .  S
C471        H477   1.111       .  S
C474        H478   1.111       .  S
C474        H479   1.110       .  S
C474        H480   1.111       .  S
C481        C486   1.404       .  A
C481       C1042   1.407       .  A
C481        H488   1.084       .  S
C482        C483   1.420       .  A
C482       C1041   1.403       .  A
C483        C484   1.408       .  A
C483        C490   1.508       .  S
C484        C485   1.406       .  A
C484        H489   1.083       .  S
C485        C711   1.497   1_554  S
C485       C1046   1.423       .  A
C486       C1045   1.417       .  A
C486        C487   1.509       .  S
C487        H491   1.111       .  S
C487        H492   1.109       .  S
C487        H493   1.110       .  S
C490        H494   1.109       .  S
C490        H495   1.111       .  S
C490        H496   1.111       .  S
C497        C502   1.410       .  A
C497       C1058   1.409       .  A
C497        H504   1.084       .  S
C498        C499   1.428       .  A
C498       C1057   1.408   1_554  A
C499        C500   1.402   1_554  A
C499        C506   1.511       .  S
C500       C1061   1.400       .  A
C500        H505   1.084   1_556  S
C501        C502   1.416       .  A
C501       C1060   1.401       .  A
C502        C503   1.507       .  S
C503        H507   1.111       .  S
C503        H508   1.110       .  S
C503        H509   1.109       .  S
C506        H510   1.109       .  S
C506        H511   1.110       .  S
C506        H512   1.111       .  S
C513        C514   1.406       .  A
C513        C518   1.406       .  A
C513        H520   1.085       .  S
C514        C515   1.410       .  A
C515        C516   1.409       .  A
C515        C522   1.506       .  S
C516        C517   1.408       .  A
C516        H521   1.085       .  S
C517        C518   1.414       .  A
C518        C519   1.507       .  S
C519        H523   1.110       .  S
C519        H524   1.110       .  S
C519        H525   1.110       .  S
C522        H526   1.110       .  S
C522        H527   1.111       .  S
C522        H528   1.110       .  S
C529        C530   1.401       .  A
C529        C534   1.406       .  A
C529        H536   1.085       .  S
C530        C531   1.410       .  A
C531        C532   1.405       .  A
C531        C538   1.507       .  S
C532        C533   1.408       .  A
C532        H537   1.085       .  S
C533        C534   1.422       .  A
C534        C535   1.509       .  S
C535        H539   1.111       .  S
C535        H540   1.110       .  S
C535        H541   1.109       .  S
C538        H542   1.110       .  S
C538        H543   1.110       .  S
C538        H544   1.111       .  S
C545        C546   1.408       .  A
C545        C550   1.405       .  A
C545        H552   1.085       .  S
C546        C547   1.422       .  A
C547        C548   1.402       .  A
C547        C554   1.510       .  S
C548        C549   1.399       .  A
C548        H553   1.086       .  S
C549        C550   1.411       .  A
C550        C551   1.507       .  S
C551        H555   1.111       .  S
C551        H556   1.110       .  S
C551        H557   1.110       .  S
C554        H558   1.109       .  S
C554        H559   1.110       .  S
C554        H560   1.111       .  S
Fe561       O577   2.080       .  S
Fe561       O567   2.043       .  S
Fe561       O574   2.058       .  S
Fe561       O572   1.928       .  S
Fe562       O565   2.051       .  S
Fe562       O569   2.083       .  S
Fe562       O573   2.072       .  S
Fe562       O578   2.058       .  S
Fe562       O572   1.925       .  S
Fe563       O581   2.103       .  S
Fe563       O568   2.097       .  S
Fe563       O575   2.129       .  S
Fe563       O572   1.932       .  S
O564        C571   1.269       .  A
O565        C579   1.269       .  A
O566        C571   1.277       .  A
O567        C570   1.262       .  A
O568        C580   1.279       .  A
O569        C582   1.278       .  A
C570        O575   1.284       .  A
C570       C1026   1.513       .  S
C571       C1090   1.470   1_554  S
O573        C576   1.263       .  A
O574        C576   1.257       .  A
C576       C1042   1.493       .  S
O577        C582   1.280       .  A
O578        C580   1.268       .  A
C579        O581   1.278       .  A
C579       C1077   1.480       .  S
C580       C1058   1.506       .  S
C582       C1106   1.483       .  S
Fe583       O599   2.066       .  S
Fe583       O589   2.036       .  S
Fe583       O596   2.056       .  S
Fe583       O588   2.076       .  S
Fe583       O594   1.937       .  S
Fe584       O587   2.060       .  S
Fe584       O591   2.091       .  S
Fe584       O595   2.079       .  S
Fe584       O600   2.049       .  S
Fe584       O594   1.922       .  S
Fe585       O603   2.094       .  S
Fe585       O590   2.093       .  S
Fe585       O597   2.121       .  S
Fe585       O586   2.081       .  S
Fe585       O594   1.937       .  S
O586        C593   1.277       .  A
O587        C601   1.272       .  A
O588        C593   1.281       .  A
O589        C592   1.259       .  A
O590        C602   1.277       .  A
O591        C604   1.280       .  A
C592        O597   1.279       .  A
C592        C946   1.506       .  S
C593        C981   1.479       .  S
O595        C598   1.261       .  A
O596        C598   1.257       .  A
C598        C962   1.497       .  S
O599        C604   1.280       .  A
O600        C602   1.268       .  A
C601        O603   1.276       .  A
C601       C1074   1.481       .  S
C602       C1010   1.487       .  S
C604        C997   1.497       .  S
Fe605       O621   2.058       .  S
Fe605       O611   2.069       .  S
Fe605       O618   2.053       .  S
Fe605       O610   2.052       .  S
Fe605       O616   1.935       .  S
Fe606       O609   2.060       .  S
Fe606       O613   2.063       .  S
Fe606       O617   2.086       .  S
Fe606       O622   2.047       .  S
Fe606       O616   1.923       .  S
Fe607       O625   2.084       .  S
Fe607       O612   2.101       .  S
Fe607       O619   2.078       .  S
Fe607       O608   2.115       .  S
Fe607       O616   1.935       .  S
O608        C615   1.280       .  A
O609        C623   1.272       .  A
O610        C615   1.264       .  A
O611        C614   1.278       .  A
O612        C624   1.276       .  A
O613        C626   1.261       .  A
C614        O619   1.275       .  A
C614        C917   1.477       .  S
C615        C869   1.508       .  S
O617        C620   1.281       .  A
O618        C620   1.276       .  A
C620        C930   1.494       .  S
O621        C626   1.257       .  A
O622        C624   1.267       .  A
C623        O625   1.276       .  A
C623        C965   1.483       .  S
C624        C898   1.479       .  S
C626        C882   1.491       .  S
Fe627       O643   2.062       .  S
Fe627       O640   2.064       .  S
Fe627       O632   2.041       .  S
Fe627       O638   1.940       .  S
Fe628       O631   2.053       .  S
Fe628       O635   2.069       .  S
Fe628       O639   2.087       .  S
Fe628       O644   2.053       .  S
Fe628       O638   1.931       .  S
Fe629       O634   2.101       .  S
Fe629       O630   2.116       .  S
Fe629       O638   1.944       .  S
O630        C637   1.278       .  A
O631        C645   1.271       .  A
O632        C637   1.260       .  A
O633        C636   1.280       .  A
O634        C646   1.277       .  A
O635        C648   1.262       .  A
C636        O641   1.276       .  A
C636        C994   1.478       .  S
C637        C834   1.506       .  S
O639        C642   1.282       .  A
O640        C642   1.279       .  A
C642        C978   1.498       .  S
O643        C648   1.256       .  A
O644        C646   1.268       .  A
C646        C901   1.481       .  S
C648       C1061   1.489       .  S
Fe649       O665   2.053       .  S
Fe649       O655   2.045       .  S
Fe649       O662   2.061       .  S
Fe649       O660   1.940       .  S
Fe650       O653   2.050       .  S
Fe650       O657   2.086       .  S
Fe650       O661   2.065       .  S
Fe650       O666   2.057       .  S
Fe650       O660   1.929       .  S
Fe651       O669   2.105       .  S
Fe651       O656   2.085       .  S
Fe651       O663   2.118       .  S
Fe651       O660   1.937       .  S
O652        C659   1.279       .  A
O653        C667   1.268       .  A
O654        C659   1.280       .  A
O655        C658   1.261       .  A
O656        C668   1.276       .  A
O657        C670   1.281       .  A
C658        O663   1.280       .  A
C658       C1029   1.505       .  S
C659        C933   1.475   1_554  S
O661        C664   1.260       .  A
O662        C664   1.259       .  A
C664        C853   1.487       .  S
O665        C670   1.276       .  A
O666        C668   1.270       .  A
C667        O669   1.278       .  A
C667        C821   1.484       .  S
C668        C802   1.489       .  S
C670        C914   1.494       .  S
Fe671       O687   2.065       .  S
Fe671       O677   2.041       .  S
Fe671       O684   2.057       .  S
Fe671       O676   2.083       .  S
Fe671       O682   1.941       .  S
Fe672       O675   2.060       .  S
Fe672       O679   2.086       .  S
Fe672       O683   2.070       .  S
Fe672       O688   2.051       .  S
Fe672       O682   1.933       .  S
Fe673       O691   2.098       .  S
Fe673       O678   2.075       .  S
Fe673       O685   2.104       .  S
Fe673       O674   2.078       .  S
Fe673       O682   1.941       .  S
O674        C681   1.276       .  A
O675        C689   1.270       .  A
O676        C681   1.280       .  A
O677        C680   1.261       .  A
O678        C690   1.275       .  A
O679        C692   1.281       .  A
C680        O685   1.277       .  A
C680        C949   1.490       .  S
C681        C773   1.497       .  S
O683        C686   1.262       .  A
O684        C686   1.256       .  A
C686        C754   1.494       .  S
O687        C692   1.279       .  A
O688        C690   1.268       .  A
C689        O691   1.276       .  A
C689        C818   1.484       .  S
C690        C885   1.481       .  S
C692        C789   1.497       .  S
Fe693       O709   2.064       .  S
Fe693       O706   2.060       .  S
Fe693       O698   2.044       .  S
Fe693       O704   1.941       .  S
Fe694       O697   2.061       .  S
Fe694       O701   2.070       .  S
Fe694       O705   2.097       .  S
Fe694       O710   2.057       .  S
Fe694       O704   1.920       .  S
Fe695       O700   2.105       .  S
Fe695       O696   2.124       .  S
Fe695       O704   1.936       .  S
O696        C703   1.283       .  A
O697        C711   1.271       .  A
O698        C703   1.262       .  A
O699        C702   1.281       .  A
O700        C712   1.277       .  A
O701        C714   1.261       .  A
C702        O707   1.276       .  A
C702        C786   1.487       .  S
C703        C837   1.507       .  S
O705        C708   1.284       .  A
O706        C708   1.278       .  A
C708        C770   1.493       .  S
O709        C714   1.256       .  A
O710        C712   1.270       .  A
C712        C738   1.486       .  S
C714        C805   1.481       .  S
Fe715       O731   2.071       .  S
Fe715       O721   2.086       .  S
Fe715       O728   2.071       .  S
Fe715       O720   2.046       .  S
Fe715       O726   1.945       .  S
Fe716       O719   2.054       .  S
Fe716       O723   2.060       .  S
Fe716       O727   2.086       .  S
Fe716       O732   2.054       .  S
Fe716       O726   1.932       .  S
Fe717       O735   2.081       .  S
Fe717       O722   2.106       .  S
Fe717       O729   2.085       .  S
Fe717       O718   2.112       .  S
Fe717       O726   1.945       .  S
O718        C725   1.278       .  A
O719        C733   1.268       .  A
O720        C725   1.262       .  A
O721        C724   1.282       .  A
O722        C734   1.278       .  A
O723        C736   1.259       .  A
C724        O729   1.276       .  A
C724       C1109   1.475       .  S
C725        C866   1.506       .  S
O727        C730   1.279       .  A
O728        C730   1.281       .  A
C730       C1093   1.488       .  S
O731        C736   1.257       .  A
O732        C734   1.269       .  A
C733        O735   1.274       .  A
C733        C757   1.480       .  S
C734        C741   1.485       .  S
C736       C1013   1.471       .  S
C737        C738   1.402       .  A
C737        C742   1.409       .  A
C737        H744   1.084       .  S
C738        C739   1.418       .  A
C739        C740   1.408       .  A
C739        C746   1.505       .  S
C740        C741   1.402       .  A
C740        H745   1.084       .  S
C741        C742   1.417       .  A
C742        C743   1.505       .  S
C743        H747   1.111       .  S
C743        H748   1.107       .  S
C743        H749   1.110       .  S
C746        H750   1.105       .  S
C746        H751   1.110       .  S
C746        H752   1.111       .  S
C753        C754   1.405       .  A
C753        C758   1.402       .  A
C753        H760   1.084       .  S
C754        C755   1.426       .  A
C755        C756   1.405       .  A
C755        C762   1.509       .  S
C756        C757   1.399       .  A
C756        H761   1.084       .  S
C757        C758   1.415       .  A
C758        C759   1.508       .  S
C759        H763   1.111       .  S
C759        H764   1.109       .  S
C759        H765   1.109       .  S
C762        H766   1.110       .  S
C762        H767   1.110       .  S
C762        H768   1.111       .  S
C769        C770   1.409       .  A
C769        C774   1.406       .  A
C769        H776   1.084       .  S
C770        C771   1.415       .  A
C771        C772   1.406       .  A
C771        C778   1.509       .  S
C772        C773   1.412       .  A
C772        H777   1.084       .  S
C773        C774   1.418       .  A
C774        C775   1.509       .  S
C775        H779   1.111       .  S
C775        H780   1.110       .  S
C775        H781   1.110       .  S
C778        H782   1.110       .  S
C778        H783   1.110       .  S
C778        H784   1.111       .  S
C785        C786   1.407       .  A
C785        C790   1.404       .  A
C785        H792   1.084       .  S
C786        C787   1.413       .  A
C787        C788   1.406       .  A
C787        C794   1.509       .  S
C788        C789   1.413       .  A
C788        H793   1.083       .  S
C789        C790   1.419       .  A
C790        C791   1.509       .  S
C791        H795   1.111       .  S
C791        H796   1.110       .  S
C791        H797   1.110       .  S
C794        H798   1.110       .  S
C794        H799   1.110       .  S
C794        H800   1.111       .  S
C801        C802   1.402       .  A
C801        C806   1.406       .  A
C801        H808   1.083       .  S
C802        C803   1.419       .  A
C803        C810   1.507       .  S
C804        C805   1.398   1_554  A
C804        H809   1.083       .  S
C806        C807   1.509       .  S
C807        H811   1.111       .  S
C807        H813   1.110       .  S
C810        H815   1.109       .  S
C817        C818   1.403       .  A
C817        C822   1.411       .  A
C817        H824   1.084       .  S
C818        C819   1.419       .  A
C819        C820   1.405       .  A
C819        C826   1.508       .  S
C820        C821   1.402       .  A
C820        H825   1.085       .  S
C821        C822   1.417       .  A
C822        C823   1.506       .  S
C823        H827   1.110       .  S
C823        H828   1.109       .  S
C823        H829   1.111       .  S
C826        H830   1.106       .  S
C826        H831   1.111       .  S
C826        H832   1.110       .  S
C833        C834   1.420       .  A
C833        C838   1.411       .  A
C833        H840   1.083       .  S
C834        C835   1.410       .  A
C835        C836   1.409   1_655  A
C835        C842   1.507       .  S
C836        C837   1.420       .  A
C836        H841   1.083       .  S
C837        C838   1.410   1_455  A
C838        C839   1.506   1_655  S
C839        H843   1.111   1_455  S
C839        H844   1.110       .  S
C839        H845   1.110       .  S
C842        H846   1.110       .  S
C842        H847   1.110       .  S
C842        H848   1.111       .  S
C849        C854   1.404       .  A
C849        H856   1.084       .  S
C850        C851   1.409       .  A
C851        C852   1.402       .  A
C851        C858   1.506       .  S
C852        C853   1.409       .  A
C852        H857   1.084       .  S
C854        C855   1.509       .  S
C855        H859   1.111       .  S
C855        H860   1.110       .  S
C855        H861   1.110       .  S
C858        H862   1.110       .  S
C858        H863   1.107       .  S
C858        H864   1.111       .  S
C865        C866   1.418       .  A
C865        C870   1.411   1_565  A
C865        H872   1.083       .  S
C866        C867   1.411       .  A
C867        C868   1.410   1_565  A
C867        C874   1.507       .  S
C868        C869   1.419       .  A
C868        H873   1.083       .  S
C869        C870   1.412       .  A
C870        C871   1.506       .  S
C871        H875   1.111   1_545  S
C871        H876   1.110       .  S
C871        H877   1.110       .  S
C874        H878   1.110       .  S
C874        H879   1.111       .  S
C874        H880   1.110       .  S
C881        C882   1.406       .  A
C881        C886   1.403       .  A
C881        H888   1.084       .  S
C882        C883   1.424       .  A
C883        C884   1.401       .  A
C883        C890   1.510       .  S
C884        C885   1.400       .  A
C884        H889   1.084       .  S
C885        C886   1.418       .  A
C886        C887   1.510       .  S
C887        H891   1.111       .  S
C887        H892   1.111       .  S
C887        H893   1.109       .  S
C890        H894   1.110       .  S
C890        H895   1.110       .  S
C890        H896   1.111       .  S
C897        C898   1.407       .  A
C897        C902   1.409       .  A
C897        H904   1.084       .  S
C898        C899   1.412       .  A
C899        C900   1.406       .  A
C899        C906   1.507       .  S
C900        C901   1.406       .  A
C900        H905   1.083       .  S
C901        C902   1.412       .  A
C902        C903   1.507       .  S
C903        H907   1.110       .  S
C903        H908   1.110       .  S
C903        H909   1.111       .  S
C906        H910   1.110       .  S
C906        H911   1.111       .  S
C906        H912   1.110       .  S
C913        C914   1.411       .  A
C913        C918   1.402       .  A
C913        H920   1.083       .  S
C914        C915   1.422       .  A
C915        C916   1.403       .  A
C915        C922   1.510       .  S
C916        C917   1.403       .  A
C916        H921   1.085       .  S
C917        C918   1.412       .  A
C918        C919   1.510       .  S
C919        H923   1.111       .  S
C919        H924   1.110       .  S
C919        H925   1.110       .  S
C922        H926   1.110       .  S
C922        H927   1.110       .  S
C922        H928   1.111       .  S
C929        C930   1.412       .  A
C929        C934   1.402       .  A
C929        H936   1.083       .  S
C930        C931   1.423       .  A
C931        C932   1.403       .  A
C931        C938   1.510       .  S
C932        C933   1.401       .  A
C932        H937   1.085       .  S
C933        C934   1.411       .  A
C934        C935   1.509       .  S
C935        H939   1.110       .  S
C935        H940   1.111       .  S
C935        H941   1.111       .  S
C938        H942   1.110       .  S
C938        H943   1.110       .  S
C938        H944   1.111       .  S
C945        C946   1.420       .  A
C945        C950   1.405       .  A
C945        H952   1.083       .  S
C946        C947   1.413       .  A
C947        C948   1.412   1_655  A
C947        C954   1.505       .  S
C948        C949   1.414       .  A
C948        H953   1.084       .  S
C949        C950   1.406   1_455  A
C950        C951   1.508   1_655  S
C951        H955   1.111       .  S
C951        H956   1.110       .  S
C951        H957   1.111   1_455  S
C954        H958   1.110       .  S
C954        H959   1.110       .  S
C954        H960   1.111       .  S
C961        C962   1.413       .  A
C961        C966   1.405       .  A
C961        H968   1.083       .  S
C962        C963   1.419       .  A
C963        C964   1.405       .  A
C963        C970   1.508       .  S
C964        C965   1.406       .  A
C964        H969   1.084       .  S
C965        C966   1.410       .  A
C966        C967   1.508       .  S
C967        H971   1.111       .  S
C967        H972   1.110       .  S
C967        H973   1.110       .  S
C970        H974   1.110       .  S
C970        H975   1.110       .  S
C970        H976   1.111       .  S
C977        C978   1.412       .  A
C977        C982   1.404       .  A
C977        H984   1.083       .  S
C978        C979   1.423       .  A
C979        C980   1.405       .  A
C979        C986   1.509       .  S
C980        C981   1.403       .  A
C980        H985   1.084       .  S
C981        C982   1.411       .  A
C982        C983   1.509       .  S
C983        H987   1.111       .  S
C983        H988   1.110       .  S
C983        H989   1.110       .  S
C986        H990   1.110       .  S
C986        H991   1.110       .  S
C986        H992   1.111       .  S
C993        C994   1.399       .  A
C993        C998   1.403       .  A
C993       H1000   1.085       .  S
C994        C995   1.412       .  A
C995        C996   1.407       .  A
C995       C1002   1.507       .  S
C996        C997   1.411       .  A
C996       H1001   1.084       .  S
C997        C998   1.423       .  A
C998        C999   1.508       .  S
C999       H1003   1.108       .  S
C999       H1004   1.110       .  S
C999       H1005   1.110       .  S
C1002      H1006   1.110       .  S
C1002      H1007   1.109       .  S
C1002      H1008   1.111       .  S
C1009      C1010   1.409       .  A
C1009      C1014   1.410       .  A
C1009      H1016   1.084       .  S
C1010      C1011   1.423       .  A
C1011      C1012   1.397       .  A
C1011      C1018   1.511       .  S
C1012      C1013   1.396       .  A
C1012      H1017   1.084       .  S
C1013      C1014   1.411       .  A
C1014      C1015   1.505       .  S
C1015      H1019   1.110       .  S
C1015      H1020   1.110       .  S
C1015      H1021   1.111       .  S
C1018      H1022   1.109       .  S
C1018      H1023   1.108       .  S
C1018      H1024   1.111       .  S
C1025      C1026   1.422       .  A
C1025      C1030   1.410   1_565  A
C1025      H1032   1.083       .  S
C1026      C1027   1.412       .  A
C1027      C1028   1.413   1_565  A
C1027      C1034   1.505       .  S
C1028      C1029   1.419       .  A
C1028      H1033   1.084       .  S
C1029      C1030   1.409       .  A
C1030      C1031   1.507       .  S
C1031      H1035   1.111   1_545  S
C1031      H1036   1.110       .  S
C1031      H1037   1.110       .  S
C1034      H1038   1.111       .  S
C1034      H1039   1.110       .  S
C1034      H1040   1.110       .  S
C1041      C1046   1.404       .  A
C1041      H1048   1.083       .  S
C1042      C1043   1.425       .  A
C1043      C1044   1.402       .  A
C1043      C1050   1.510       .  S
C1044      C1045   1.399       .  A
C1044      H1049   1.084       .  S
C1046      C1047   1.510   1_554  S
C1047      H1051   1.111       .  S
C1047      H1052   1.109       .  S
C1047      H1053   1.110       .  S
C1050      H1054   1.110       .  S
C1050      H1055   1.110       .  S
C1050      H1056   1.111       .  S
C1057      C1062   1.409       .  A
C1057      H1064   1.083       .  S
C1058      C1059   1.429       .  A
C1059      C1060   1.407       .  A
C1059      C1066   1.511       .  S
C1060      H1065   1.085       .  S
C1061      C1062   1.419       .  A
C1062      C1063   1.508       .  S
C1063      H1067   1.111       .  S
C1063      H1068   1.111       .  S
C1063      H1069   1.109       .  S
C1066      H1070   1.110       .  S
C1066      H1071   1.110       .  S
C1066      H1072   1.108       .  S
C1073      C1074   1.407       .  A
C1073      C1078   1.409       .  A
C1073      H1080   1.084       .  S
C1074      C1075   1.411       .  A
C1075      C1076   1.407       .  A
C1075      C1082   1.507       .  S
C1076      C1077   1.407       .  A
C1076      H1081   1.085       .  S
C1077      C1078   1.413       .  A
C1078      C1079   1.508       .  S
C1079      H1083   1.111       .  S
C1079      H1084   1.110       .  S
C1079      H1085   1.110       .  S
C1082      H1086   1.110       .  S
C1082      H1087   1.110       .  S
C1082      H1088   1.111       .  S
C1089      C1090   1.401       .  A
C1089      C1094   1.404       .  A
C1089      H1096   1.085       .  S
C1090      C1091   1.408       .  A
C1091      C1092   1.406       .  A
C1091      C1098   1.506       .  S
C1092      C1093   1.409       .  A
C1092      H1097   1.084       .  S
C1093      C1094   1.420       .  A
C1094      C1095   1.509       .  S
C1095      H1099   1.111       .  S
C1095      H1100   1.111       .  S
C1095      H1101   1.109       .  S
C1098      H1102   1.111       .  S
C1098      H1103   1.110       .  S
C1098      H1104   1.110       .  S
C1105      C1106   1.409       .  A
C1105      C1110   1.411       .  A
C1105      H1112   1.085       .  S
C1106      C1107   1.417       .  A
C1107      C1108   1.400       .  A
C1107      C1114   1.509       .  S
C1108      C1109   1.400       .  A
C1108      H1113   1.084       .  S
C1109      C1110   1.409       .  A
C1110      C1111   1.504       .  S
C1111      H1115   1.110       .  S
C1111      H1116   1.111       .  S
C1111      H1117   1.110       .  S
C1114      H1118   1.111       .  S
C1114      H1119   1.107       .  S
C1114      H1120   1.111       .  S
