geometry optimzed in LAMMPS
_audit_creation_date              2020-11-30 
_audit_creation_method            'lammps2cif' 
_symmetry_space_group_name_H-M    'P1' 
_symmetry_Int_Tables_number       1 
_symmetry_cell_setting            triclinic 
loop_ 
_symmetry_equiv_pos_as_xyz 
  x,y,z 
_cell_length_a                    45.987158705926134 
_cell_length_b                    46.095688788279425 
_cell_length_c                    27.812726406635665 
_cell_angle_alpha                 89.5122817893266 
_cell_angle_beta                  90.04377467179094 
_cell_angle_gamma                 90.31205956672238 
loop_ 
_atom_site_label 
_atom_site_type_symbol 
_atom_site_fract_x 
_atom_site_fract_y 
_atom_site_fract_z 
_atom_site_charge 
Zn1        Zn  0.60219832  0.57353121  0.44502751     1.49720
Zn2        Zn  0.65335815  0.55932787  0.37265727     1.49360
Zn3        Zn  0.61079982  0.61389609  0.34967006     1.49110
Zn4        Zn  0.65355424  0.61468494  0.43211694     1.49480
O5          O  0.62798540  0.58942813  0.39855545    -1.83520
O6          O  0.60981362  0.52991058  0.45144917    -0.74150
O7          O  0.66238398  0.56863924  0.30207921    -0.73970
O8          O  0.56686892  0.60514096  0.35035743    -0.73490
O9          O  0.64139504  0.51800333  0.39428468    -0.74170
O10         O  0.56183921  0.58289561  0.42166254    -0.73760
O11         O  0.63622548  0.60878804  0.28857949    -0.74350
O12         O  0.64291290  0.65552071  0.42929084    -0.73740
O13         O  0.69118119  0.56428049  0.40685382    -0.74500
O14         O  0.61368170  0.65718566  0.36673089    -0.73890
O15         O  0.69125005  0.61167964  0.40006609    -0.74350
O16         O  0.65523534  0.60587205  0.50274765    -0.74260
O17         O  0.60922703  0.59188954  0.51087145    -0.74050
C18         C  0.62546562  0.51095370  0.43035820     0.77740
C19         C  0.65612544  0.59087665  0.27616106     0.78230
C20         C  0.55077368  0.59497651  0.38437026     0.77190
C21         C  0.62752893  0.66996836  0.40028338     0.77570
C22         C  0.70343764  0.58861996  0.41372467     0.78700
C23         C  0.63294296  0.60139829  0.52893227     0.77750
Zn24       Zn  0.87692743  0.61838530  0.58152601     1.49720
Zn25       Zn  0.86828434  0.56374035  0.66284281     1.49360
Zn26       Zn  0.82111163  0.61487179  0.63872980     1.49110
Zn27       Zn  0.83306674  0.56681504  0.56963378     1.49480
O28         O  0.85207993  0.59092515  0.61526775    -1.83520
O29         O  0.91612523  0.60916735  0.60548090    -0.74150
O30         O  0.84303516  0.56930730  0.72682182    -0.73970
O31         O  0.82911826  0.65698810  0.64014715    -0.73490
O32         O  0.91262978  0.57537927  0.66397966    -0.74170
O33         O  0.86704582  0.66127901  0.59223135    -0.73760
O34         O  0.80999216  0.60197991  0.70311902    -0.74350
O35         O  0.79178752  0.56546174  0.58545788    -0.73740
O36         O  0.86492017  0.51958058  0.63902901    -0.74500
O37         O  0.78874873  0.61252226  0.59236524    -0.73890
O38         O  0.84498071  0.52620060  0.56732943    -0.74350
O39         O  0.83780895  0.58272521  0.50411522    -0.74260
O40         O  0.87494976  0.61330918  0.50937357    -0.74050
C41         C  0.92777891  0.59244738  0.63664821     0.77740
C42         C  0.82027837  0.58486704  0.73474269     0.78230
C43         C  0.84684869  0.67280211  0.61683407     0.77190
C44         C  0.77998702  0.58911941  0.57380756     0.77570
C45         C  0.85555724  0.50946293  0.59890363     0.78700
C46         C  0.85640202  0.59940878  0.48439809     0.77750
Zn47       Zn  0.81147801  0.62117513  0.09744547     1.49720
Zn48       Zn  0.81525269  0.59116578  0.19301866     1.49360
Zn49       Zn  0.86587948  0.58099722  0.12950321     1.49110
Zn50       Zn  0.86224944  0.63828009  0.18211679     1.49480
O51         O  0.83894366  0.61029795  0.14783935    -1.83520
O52         O  0.76730774  0.61713123  0.12194848    -0.74150
O53         O  0.81430961  0.55024447  0.17659799    -0.73970
O54         O  0.85711708  0.56704430  0.06530786    -0.73490
O55         O  0.77486166  0.60359559  0.19745403    -0.74170
O56         O  0.81939923  0.59273520  0.03817747    -0.73760
O57         O  0.86208372  0.54881339  0.17542809    -0.74350
O58         O  0.90606964  0.63216547  0.17624853    -0.73740
O59         O  0.83187912  0.59499279  0.25739869    -0.74500
O60         O  0.90718859  0.59177169  0.13404338    -0.73890
O61         O  0.85540552  0.63689614  0.25454007    -0.74350
O62         O  0.85205881  0.67500989  0.15035129    -0.74260
O63         O  0.82196214  0.66507460  0.08823823    -0.74050
C64         C  0.75763655  0.61096306  0.16422579     0.77740
C65         C  0.83789710  0.53858931  0.18917756     0.78230
C66         C  0.83847572  0.57254474  0.03293361     0.77190
C67         C  0.92016120  0.61169488  0.15679076     0.77570
C68         C  0.84566243  0.61518175  0.27834571     0.78700
C69         C  0.83742654  0.68273965  0.11348921     0.77750
Zn70       Zn  0.86180872  0.35986203  0.41698266     1.49720
Zn71       Zn  0.86662034  0.39616266  0.32362169     1.49360
Zn72       Zn  0.81712530  0.34903706  0.32484647     1.49110
Zn73       Zn  0.80989613  0.40340107  0.38908797     1.49480
O74         O  0.83863983  0.37624120  0.36438788    -1.83520
O75         O  0.90584900  0.36236526  0.40324544    -0.74150
O76         O  0.86328926  0.38519351  0.25489550    -0.73970
O77         O  0.82709318  0.30965533  0.35047271    -0.73490
O78         O  0.90776624  0.39149665  0.34000399    -0.74170
O79         O  0.85212882  0.31591662  0.41916280    -0.73760
O80         O  0.82912728  0.35123435  0.25447230    -0.74350
O81         O  0.76723732  0.39341554  0.37549112    -0.73740
O82         O  0.85967816  0.43737470  0.32504750    -0.74500
O83         O  0.77335149  0.35764565  0.32359368    -0.73890
O84         O  0.81355557  0.43845203  0.34894230    -0.74350
O85         O  0.82042184  0.41575028  0.45695883    -0.74260
O86         O  0.85678771  0.38620095  0.47742872    -0.74050
C87         C  0.92047594  0.37675688  0.37210221     0.77740
C88         C  0.84741207  0.36732152  0.23233849     0.78230
C89         C  0.84048558  0.29956643  0.38714024     0.77190
C90         C  0.75699850  0.37623690  0.34384861     0.77570
C91         C  0.83519070  0.44954808  0.32740829     0.78700
C92         C  0.84062643  0.40821196  0.48601287     0.77750
Zn93       Zn  0.83079606  0.36445188  0.92965888     1.49720
Zn94       Zn  0.82876062  0.42089880  0.87228487     1.49360
Zn95       Zn  0.88072136  0.41049182  0.93743153     1.49110
Zn96       Zn  0.86969780  0.36794788  0.84179990     1.49480
O97         O  0.85482002  0.39106992  0.89448907    -1.83520
O98         O  0.79062654  0.37108195  0.91194173    -0.74150
O99         O  0.84017617  0.46273638  0.88248021    -0.73970
O100        O  0.87619317  0.39368596  0.00558960    -0.73490
O101        O  0.79543899  0.41862184  0.91595032    -0.74170
O102        O  0.83438248  0.36976384  0.00027189    -0.73760
O103        O  0.87160019  0.45456863  0.94172567    -0.74350
O104        O  0.91374964  0.37738240  0.84078110    -0.73740
O105        O  0.81228849  0.40951173  0.80870925    -0.74500
O106        O  0.92004377  0.40142976  0.91035033    -0.73890
O107        O  0.83972259  0.37251396  0.78416580    -0.74350
O108        O  0.86821107  0.32395353  0.85642394    -0.74260
O109        O  0.83781511  0.32331607  0.91777786    -0.74050
C110        C  0.78120612  0.39559010  0.92414044     0.77740
C111        C  0.85502117  0.47179718  0.91807790     0.78230
C112        C  0.85540469  0.37942129  0.02525713     0.77190
C113        C  0.93018189  0.38869294  0.87326753     0.77570
C114        C  0.81679878  0.38832371  0.78048646     0.78700
C115        C  0.85307221  0.31004089  0.88741252     0.77750
Zn116      Zn  0.65117524  0.36153692  0.12330190     1.49720
Zn117      Zn  0.60705043  0.41124234  0.15949023     1.49360
Zn118      Zn  0.62101342  0.40693546  0.04905448     1.49110
Zn119      Zn  0.58950683  0.35507382  0.08955034     1.49480
O120        O  0.61740463  0.38425341  0.10749046    -1.83520
O121        O  0.66382884  0.36903105  0.18992891    -0.74150
O122        O  0.61342225  0.45473020  0.13644859    -0.73970
O123        O  0.66052690  0.40181591  0.02767565    -0.73490
O124        O  0.63467847  0.40287697  0.21979784    -0.74170
O125        O  0.68297970  0.37260233  0.08006915    -0.73760
O126        O  0.61703034  0.44928628  0.05737718    -0.74350
O127        O  0.58571105  0.35004664  0.01763858    -0.73740
O128        O  0.56235180  0.40384516  0.16929524    -0.74500
O129        O  0.59827154  0.39370151  0.99201857    -0.73890
O130        O  0.55330922  0.36801828  0.11722619    -0.74350
O131        O  0.59784857  0.31476522  0.11185370    -0.74260
O132        O  0.64557469  0.31841777  0.11541817    -0.74050
C133        C  0.65632196  0.38539862  0.22421764     0.77740
C134        C  0.61614863  0.46547244  0.09394876     0.78230
C135        C  0.68261805  0.38815847  0.04231712     0.77190
C136        C  0.58916476  0.36822380  0.98356689     0.77570
C137        C  0.54470242  0.38643254  0.14778764     0.78700
C138        C  0.62268469  0.30292409  0.11340042     0.77750
Zn139      Zn  0.66504124  0.57341269  0.89055514     1.49720
Zn140      Zn  0.66423142  0.63040325  0.83035588     1.49360
Zn141      Zn  0.61238673  0.58833387  0.81476431     1.49110
Zn142      Zn  0.61407999  0.61623466  0.91553741     1.49480
O143        O  0.63904677  0.60257040  0.86369910    -1.83520
O144        O  0.70795625  0.57956576  0.87791758    -0.74150
O145        O  0.65668997  0.63104037  0.75763704    -0.73970
O146        O  0.62460661  0.54952274  0.79931221    -0.73490
O147        O  0.70774542  0.61979419  0.83359899    -0.74170
O148        O  0.65912591  0.53890968  0.85268157    -0.73760
O149        O  0.61420915  0.60866415  0.75192364    -0.74350
O150        O  0.57072212  0.61180589  0.89914027    -0.73740
O151        O  0.65324748  0.66895644  0.85832641    -0.74500
O152        O  0.57074364  0.58689738  0.83174163    -0.73890
O153        O  0.62207459  0.65975760  0.91923513    -0.74350
O154        O  0.61857838  0.59036128  0.97715511    -0.74260
O155        O  0.65505986  0.56120310  0.95802617    -0.74050
C156        C  0.72108282  0.59781693  0.85095223     0.77740
C157        C  0.63533048  0.62201694  0.73259049     0.78230
C158        C  0.64381047  0.53279006  0.81637007     0.77190
C159        C  0.55705406  0.59870969  0.86569348     0.77570
C160        C  0.63641303  0.67730356  0.89204250     0.78700
C161        C  0.63487151  0.56855800  0.98667947     0.77750
Zn162      Zn  0.65707196  0.35829308  0.61366268     1.49720
Zn163      Zn  0.65296658  0.36445493  0.71941110     1.49360
Zn164      Zn  0.60797198  0.39929347  0.65620440     1.49110
Zn165      Zn  0.59857422  0.33683366  0.68060908     1.49480
O166        O  0.62816969  0.36445766  0.66438797    -1.83520
O167        O  0.69960361  0.36560944  0.64334858    -0.74150
O168        O  0.66459438  0.40447009  0.73052733    -0.73970
O169        O  0.61499919  0.41517767  0.59136570    -0.73490
O170        O  0.68920605  0.34204532  0.70994088    -0.74170
O171        O  0.64850209  0.38828604  0.55586160    -0.73760
O172        O  0.62514524  0.42633527  0.70073517    -0.74350
O173        O  0.55826630  0.34866625  0.66032959    -0.73740
O174        O  0.63242625  0.35429733  0.77970444    -0.74500
O175        O  0.56467042  0.39624920  0.66572515    -0.73890
O176        O  0.59290491  0.33210288  0.75296522    -0.74350
O177        O  0.61213238  0.30212937  0.64765579    -0.74260
O178        O  0.65007378  0.31434711  0.59995548    -0.74050
C179        C  0.70771607  0.35568480  0.68448708     0.77740
C180        C  0.64859973  0.42649503  0.72483518     0.78230
C181        C  0.63070505  0.40982616  0.55504698     0.77190
C182        C  0.54803967  0.37420556  0.66296953     0.77570
C183        C  0.60795786  0.34241432  0.78720273     0.78700
C184        C  0.63191115  0.29561739  0.61745803     0.77750
Zn185      Zn  0.65153283  0.13337159  0.18769159     1.49720
Zn186      Zn  0.60777576  0.11635138  0.09857648     1.49360
Zn187      Zn  0.66500679  0.08082749  0.12220280     1.49110
Zn188      Zn  0.60779279  0.08155955  0.19168716     1.49480
O189        O  0.63310652  0.10353901  0.14964660    -1.83520
O190        O  0.64368183  0.17054547  0.15331897    -0.74150
O191        O  0.61295886  0.08855005  0.04117609    -0.73970
O192        O  0.70616194  0.09680564  0.13467570    -0.73490
O193        O  0.61493346  0.16005317  0.09030254    -0.74170
O194        O  0.69506932  0.12587942  0.19496518    -0.73760
O195        O  0.65491686  0.06590051  0.05514302    -0.74350
O196        O  0.62730812  0.04574796  0.20667788    -0.73740
O197        O  0.56500730  0.11045331  0.11615103    -0.74500
O198        O  0.66748862  0.04549214  0.16173669    -0.73890
O199        O  0.56722674  0.07440354  0.16893449    -0.74350
O200        O  0.60319157  0.09958171  0.25514988    -0.74260
O201        O  0.63485897  0.13568017  0.25575460    -0.74050
C202        C  0.62880459  0.17818283  0.11667272     0.77740
C203        C  0.63167480  0.06915197  0.03049443     0.78230
C204        C  0.71387258  0.11144003  0.17147894     0.77190
C205        C  0.65136659  0.03487893  0.19433079     0.77570
C206        C  0.55251815  0.09079398  0.14143274     0.78700
C207        C  0.61566044  0.12015122  0.27698875     0.77750
Zn208      Zn  0.65624071  0.83710620  0.32173627     1.49720
Zn209      Zn  0.61438387  0.85690048  0.41477786     1.49360
Zn210      Zn  0.66829822  0.89256052  0.37825742     1.49110
Zn211      Zn  0.61059985  0.88620908  0.31424390     1.49480
O212        O  0.63709247  0.86731442  0.35775778    -1.83520
O213        O  0.64620180  0.80098262  0.35845681    -0.74150
O214        O  0.62158694  0.88655226  0.47039195    -0.73970
O215        O  0.70915844  0.87768597  0.37195358    -0.73490
O216        O  0.62077642  0.81329353  0.42450086    -0.74170
O217        O  0.70031901  0.84554105  0.31476911    -0.73760
O218        O  0.65844716  0.91191761  0.43959265    -0.74350
O219        O  0.62800831  0.92255375  0.29302030    -0.73740
O220        O  0.57100776  0.86215280  0.40230124    -0.74500
O221        O  0.67014691  0.92455351  0.33243422    -0.73890
O222        O  0.57084312  0.89183623  0.33912903    -0.74350
O223        O  0.60492644  0.86537815  0.25360029    -0.74260
O224        O  0.64016444  0.83312489  0.25292921    -0.74050
C225        C  0.63217774  0.79439292  0.39670621     0.77740
C226        C  0.63849677  0.90875352  0.47091421     0.78230
C227        C  0.71796106  0.86219190  0.33720401     0.77190
C228        C  0.65262562  0.93396658  0.30109433     0.77570
C229        C  0.55755517  0.87845660  0.37256692     0.78700
C230        C  0.61919906  0.84608880  0.23191913     0.77750
Zn231      Zn  0.87049744  0.11618724  0.34743643     1.49720
Zn232      Zn  0.84132454  0.12330962  0.44125325     1.49360
Zn233      Zn  0.82488059  0.06579133  0.38304263     1.49110
Zn234      Zn  0.88071992  0.07267581  0.44057409     1.49480
O235        O  0.85500783  0.09356060  0.39991166    -1.83520
O236        O  0.86795266  0.16024653  0.36160338    -0.74150
O237        O  0.80939221  0.10670056  0.47582324    -0.73970
O238        O  0.80886297  0.07763663  0.31823655    -0.73490
O239        O  0.83036331  0.16022392  0.41060765    -0.74170
O240        O  0.84142509  0.11002458  0.28989712    -0.73760
O241        O  0.79458974  0.06877379  0.43380948    -0.74350
O242        O  0.86806042  0.03069820  0.44856900    -0.73740
O243        O  0.86809583  0.13378563  0.49418311    -0.74500
O244        O  0.83465103  0.02260722  0.39260756    -0.73890
O245        O  0.87991155  0.08830821  0.50830442    -0.74350
O246        O  0.91972522  0.07981236  0.41332356    -0.74260
O247        O  0.91484852  0.10652443  0.34624040    -0.74050
C248        C  0.84860438  0.17404789  0.38499891     0.77740
C249        C  0.79309350  0.08478685  0.47065696     0.78230
C250        C  0.81726639  0.09588729  0.28620035     0.77190
C251        C  0.84926860  0.01405970  0.42906952     0.77570
C252        C  0.87568347  0.11393788  0.52324562     0.78700
C253        C  0.93084314  0.09357685  0.37784834     0.77750
Zn254      Zn  0.60981807  0.11677475  0.66059712     1.49720
Zn255      Zn  0.64441606  0.05906277  0.63958635     1.49360
Zn256      Zn  0.59345900  0.07668308  0.57033712     1.49110
Zn257      Zn  0.64820218  0.11617822  0.57226686     1.49480
O258        O  0.62344197  0.09185444  0.61054481    -1.83520
O259        O  0.63848412  0.11243343  0.71661487    -0.74150
O260        O  0.62898496  0.01884509  0.61996459    -0.73970
O261        O  0.55611436  0.08373337  0.60479567    -0.73490
O262        O  0.65494578  0.06739971  0.70926629    -0.74170
O263        O  0.56689905  0.10862636  0.67140691    -0.73760
O264        O  0.60178070  0.03401537  0.55858020    -0.74350
O265        O  0.63576170  0.11770245  0.50421075    -0.73740
O266        O  0.68398105  0.05814020  0.61178936    -0.74500
O267        O  0.59251857  0.09661451  0.50435342    -0.73890
O268        O  0.68690796  0.10103322  0.57478953    -0.74350
O269        O  0.65016142  0.15745685  0.59076326    -0.74260
O270        O  0.61239845  0.15888121  0.63978044    -0.74050
C271        C  0.65551258  0.09206944  0.73006699     0.77740
C272        C  0.61590309  0.01398524  0.58022872     0.78230
C273        C  0.54850948  0.09644194  0.64340058     0.77190
C274        C  0.61241988  0.11099585  0.48264354     0.77570
C275        C  0.69818502  0.07759597  0.58945168     0.78700
C276        C  0.63143543  0.17167670  0.61389692     0.77750
Zn277      Zn  0.83122777  0.91493983  0.12923979     1.49720
Zn278      Zn  0.83785846  0.85940330  0.07073853     1.49360
Zn279      Zn  0.88703888  0.90121226  0.06907883     1.49110
Zn280      Zn  0.87011927  0.86052825  0.16335200     1.49480
O281        O  0.85837984  0.88520931  0.11053489    -1.83520
O282        O  0.79644867  0.90754394  0.08943619    -0.74150
O283        O  0.83983595  0.87052644  0.00267794    -0.73970
O284        O  0.88012941  0.94476396  0.06071974    -0.73490
O285        O  0.79769618  0.85952980  0.09112610    -0.74170
O286        O  0.84349259  0.95632197  0.10879427    -0.73760
O287        O  0.88615170  0.88355763  0.00119570    -0.74350
O288        O  0.91429971  0.86567312  0.16883316    -0.73740
O289        O  0.84997941  0.81892014  0.07263851    -0.74500
O290        O  0.92392831  0.89067995  0.10120368    -0.73890
O291        O  0.86304672  0.81747738  0.14909919    -0.74350
O292        O  0.84251288  0.86834624  0.22014024    -0.74260
O293        O  0.81696067  0.90722961  0.19732839    -0.74050
C294        C  0.78510833  0.88298528  0.08088908     0.77740
C295        C  0.86314819  0.87518800  0.97968439     0.78230
C296        C  0.86215980  0.96347046  0.07662911     0.77190
C297        C  0.93236959  0.87660766  0.13841874     0.77570
C298        C  0.85611028  0.80477156  0.11022954     0.78700
C299        C  0.82169330  0.88628005  0.22673632     0.77750
Zn300      Zn  0.65124590  0.85860999  0.88430439     1.49720
Zn301      Zn  0.58984328  0.85345646  0.92500780     1.49360
Zn302      Zn  0.62861973  0.90276072  0.96134157     1.49110
Zn303      Zn  0.60830821  0.91169001  0.85699515     1.49480
O304        O  0.61890278  0.88166106  0.90461380    -1.83520
O305        O  0.64429968  0.81596452  0.88881722    -0.74150
O306        O  0.58802001  0.84748614  0.99788187    -0.73970
O307        O  0.67025273  0.90531313  0.96645877    -0.73490
O308        O  0.59683178  0.81275221  0.90110002    -0.74170
O309        O  0.68387216  0.86550324  0.92788561    -0.73760
O310        O  0.61854133  0.88181989  0.02144527    -0.74350
O311        O  0.61401603  0.95405987  0.88597532    -0.73740
O312        O  0.55334620  0.86812169  0.89845804    -0.74500
O313        O  0.61482200  0.94324051  0.96380011    -0.73890
O314        O  0.56356683  0.90473910  0.84716759    -0.74350
O315        O  0.63530919  0.90607963  0.79502996    -0.74260
O316        O  0.66305221  0.86882094  0.81779697    -0.74050
C317        C  0.62133139  0.80092194  0.89384212     0.77740
C318        C  0.60254618  0.86005704  0.03067371     0.78230
C319        C  0.68838848  0.88552663  0.95791401     0.77190
C320        C  0.61384464  0.96197152  0.93017687     0.77570
C321        C  0.54546569  0.88721252  0.86782760     0.78700
C322        C  0.65581651  0.88780185  0.78668429     0.77750
Zn323      Zn  0.86804568  0.12386855  0.91336407     1.49720
Zn324      Zn  0.82531926  0.13874954  0.81785419     1.49360
Zn325      Zn  0.87384435  0.09199154  0.81988185     1.49110
Zn326      Zn  0.81665025  0.08243690  0.87678389     1.49480
O327        O  0.84551203  0.11098463  0.85807672    -1.83520
O328        O  0.86007085  0.16768023  0.91684480    -0.74150
O329        O  0.84202242  0.13929639  0.74910853    -0.73970
O330        O  0.91493747  0.09950795  0.83247217    -0.73490
O331        O  0.83361076  0.17667561  0.85001884    -0.74170
O332        O  0.91228937  0.11953104  0.90376831    -0.73760
O333        O  0.86907343  0.09977951  0.75102278    -0.74350
O334        O  0.82320546  0.04768934  0.83778896    -0.73740
O335        O  0.78115624  0.12923072  0.81146355    -0.74500
O336        O  0.87097231  0.05113441  0.83223393    -0.73890
O337        O  0.77489355  0.09244666  0.86237533    -0.74350
O338        O  0.82463554  0.06703865  0.94277709    -0.74260
O339        O  0.86066999  0.09496998  0.97044144    -0.74050
C340        C  0.84749325  0.18516863  0.88726309     0.77740
C341        C  0.85801864  0.12080877  0.72786960     0.78230
C342        C  0.92731868  0.10900752  0.86963048     0.77190
C343        C  0.84780641  0.03663328  0.82906331     0.77570
C344        C  0.76473853  0.10992826  0.83096643     0.78700
C345        C  0.84444836  0.07229165  0.97351529     0.77750
Zn346      Zn  0.80919314  0.85962470  0.60892791     1.49720
Zn347      Zn  0.86603692  0.84059228  0.68139377     1.49360
Zn348      Zn  0.86017841  0.90187631  0.64567226     1.49110
Zn349      Zn  0.81530110  0.87246318  0.71900520     1.49480
O350        O  0.83733538  0.86855430  0.66031701    -1.83520
O351        O  0.81734142  0.81515513  0.59823934    -0.74150
O352        O  0.90760586  0.85011979  0.66439474    -0.73970
O353        O  0.84742324  0.91924936  0.58551496    -0.73490
O354        O  0.85275922  0.80424294  0.65179845    -0.74170
O355        O  0.81595949  0.88945055  0.55001298    -0.73760
O356        O  0.90315350  0.89625118  0.64341235    -0.74350
O357        O  0.82849511  0.90686574  0.75177612    -0.73740
O358        O  0.86827929  0.83989884  0.75437525    -0.74500
O359        O  0.85469677  0.92987455  0.69633593    -0.73890
O360        O  0.82129640  0.84114085  0.76694331    -0.74350
O361        O  0.77364399  0.87862929  0.70958416    -0.74260
O362        O  0.76561432  0.86684648  0.63360607    -0.74050
C363        C  0.83431813  0.79693090  0.61973773     0.77740
C364        C  0.91887226  0.87449403  0.65323162     0.78230
C365        C  0.83079491  0.91325762  0.55056787     0.77190
C366        C  0.84304316  0.92856049  0.73757119     0.77570
C367        C  0.84700420  0.84080829  0.78329498     0.78700
C368        C  0.75634347  0.87555084  0.67463515     0.77750
Zn369      Zn  0.31009470  0.11426761  0.61654370     1.49720
Zn370      Zn  0.37040941  0.08500058  0.60858546     1.49360
Zn371      Zn  0.36758594  0.13460875  0.68238060     1.49110
Zn372      Zn  0.33273467  0.08001120  0.70491075     1.49480
O373        O  0.34453891  0.10418977  0.65383481    -1.83520
O374        O  0.31067323  0.08576523  0.55771541    -0.74150
O375        O  0.41150650  0.09614569  0.61542581    -0.73970
O376        O  0.35485410  0.16978539  0.64870254    -0.73490
O377        O  0.35742822  0.08838502  0.54096094    -0.74170
O378        O  0.31656472  0.15829565  0.60176874    -0.73760
O379        O  0.41087171  0.12869133  0.67325590    -0.74350
O380        O  0.35160650  0.09112496  0.76603245    -0.73740
O381        O  0.37176098  0.04295774  0.62226794    -0.74500
O382        O  0.36431057  0.13706061  0.75488318    -0.73890
O383        O  0.34636378  0.04162438  0.69048042    -0.74350
O384        O  0.28962949  0.07885541  0.71458043    -0.74260
O385        O  0.27157981  0.10582627  0.65585511    -0.74050
C386        C  0.33243663  0.07795939  0.53214120     0.77740
C387        C  0.42474383  0.11205694  0.64532767     0.78230
C388        C  0.33540243  0.17655739  0.61801611     0.77190
C389        C  0.36177257  0.11481879  0.78202600     0.77570
C390        C  0.36135151  0.02952350  0.65818647     0.78700
C391        C  0.26778824  0.09012328  0.69374105     0.77750
Zn392      Zn  0.36699805  0.85289278  0.83179777     1.49720
Zn393      Zn  0.36083122  0.91375314  0.87113922     1.49360
Zn394      Zn  0.31512531  0.88389128  0.79789704     1.49110
Zn395      Zn  0.31178459  0.86577775  0.90590298     1.49480
O396        O  0.33832789  0.87932749  0.85516897    -1.83520
O397        O  0.40780399  0.86239133  0.84989077    -0.74150
O398        O  0.35692389  0.94281116  0.81801073    -0.73970
O399        O  0.32225410  0.85574524  0.74471630    -0.73490
O400        O  0.40442041  0.90780215  0.87302169    -0.74170
O401        O  0.36900098  0.85396550  0.75953524    -0.73760
O402        O  0.32879305  0.91860358  0.76709784    -0.74350
O403        O  0.26766250  0.87078547  0.88362998    -0.73740
O404        O  0.34862395  0.92779530  0.93575516    -0.74500
O405        O  0.27304741  0.88813836  0.80944176    -0.73890
O406        O  0.31894583  0.89347987  0.96591646    -0.74350
O407        O  0.32210085  0.82118669  0.91416696    -0.74260
O408        O  0.35650666  0.81485266  0.85816575    -0.74050
C409        C  0.41983761  0.88601322  0.86236975     0.77740
C410        C  0.34515273  0.93978350  0.77690423     0.78230
C411        C  0.34825300  0.85477804  0.72950106     0.77190
C412        C  0.25681026  0.88115805  0.84452224     0.77570
C413        C  0.33325485  0.91750457  0.97008589     0.78700
C414        C  0.33975357  0.80479015  0.89078332     0.77750
Zn415      Zn  0.08908781  0.85244127  0.59694531     1.49720
Zn416      Zn  0.10502360  0.90911224  0.67054693     1.49360
Zn417      Zn  0.14864454  0.85771571  0.64285557     1.49110
Zn418      Zn  0.12456953  0.90301201  0.56384133     1.49480
O419        O  0.11655332  0.88085662  0.62117297    -1.83520
O420        O  0.05158026  0.86660518  0.62096887    -0.74150
O421        O  0.13118936  0.90244257  0.73310199    -0.73970
O422        O  0.14312603  0.81498374  0.63548479    -0.73490
O423        O  0.06039214  0.90147257  0.67574872    -0.74170
O424        O  0.09659533  0.81084180  0.61718961    -0.73760
O425        O  0.15955548  0.86620011  0.70974700    -0.74350
O426        O  0.16340680  0.89356741  0.54442830    -0.73740
O427        O  0.11224731  0.95266412  0.64728521    -0.74500
O428        O  0.18236367  0.86747288  0.60403300    -0.73890
O429        O  0.12614064  0.94505967  0.57230604    -0.74350
O430        O  0.10063983  0.89512517  0.50641541    -0.74260
O431        O  0.08939784  0.84980268  0.52354590    -0.74050
C432        C  0.04298654  0.88518966  0.65146740     0.77740
C433        C  0.15215594  0.88459530  0.74105074     0.78230
C434        C  0.12111727  0.79930693  0.62614674     0.77190
C435        C  0.18462652  0.88106166  0.56446220     0.77570
C436        C  0.12122930  0.96224872  0.60645806     0.78700
C437        C  0.09335752  0.86999783  0.49280685     0.77750
Zn438      Zn  0.37300498  0.86913638  0.35309272     1.49720
Zn439      Zn  0.38316410  0.91700138  0.44298314     1.49360
Zn440      Zn  0.32485145  0.91306468  0.39002818     1.49110
Zn441      Zn  0.35160428  0.86240626  0.45567624     1.49480
O442        O  0.35839536  0.89122939  0.40669257    -1.83520
O443        O  0.41612894  0.88039863  0.35141451    -0.74150
O444        O  0.37122006  0.95987399  0.43880586    -0.73970
O445        O  0.31303730  0.90626115  0.32197066    -0.73490
O446        O  0.42291945  0.90790627  0.41707132    -0.74170
O447        O  0.34551853  0.87509770  0.29329157    -0.73760
O448        O  0.32647827  0.95554844  0.40959321    -0.74350
O449        O  0.31525257  0.87135397  0.48667237    -0.73740
O450        O  0.37889656  0.90715822  0.51526814    -0.74500
O451        O  0.29362514  0.89740116  0.42931709    -0.73890
O452        O  0.38207381  0.86026285  0.50567300    -0.74350
O453        O  0.34731791  0.82280860  0.43443270    -0.74260
O454        O  0.37192879  0.82494336  0.36658658    -0.74050
C455        C  0.43283057  0.89357290  0.38136441     0.77740
C456        C  0.34636933  0.97076792  0.42916407     0.78230
C457        C  0.32196996  0.88976637  0.28862046     0.77190
C458        C  0.29308032  0.88350156  0.46885416     0.77570
C459        C  0.38031292  0.88172014  0.53321042     0.78700
C460        C  0.35961745  0.81023518  0.40002935     0.77750
Zn461      Zn  0.10520060  0.09230351  0.33572015     1.49720
Zn462      Zn  0.11461021  0.11342885  0.43328960     1.49360
Zn463      Zn  0.15942547  0.06755313  0.39038029     1.49110
Zn464      Zn  0.16047843  0.12898983  0.34243703     1.49480
O465        O  0.13675355  0.10135047  0.37753669    -1.83520
O466        O  0.06920653  0.11461315  0.34435616    -0.74150
O467        O  0.12419144  0.08673852  0.49206778    -0.73970
O468        O  0.14042315  0.03585346  0.35452810    -0.73490
O469        O  0.07043188  0.10807351  0.42262787    -0.74170
O470        O  0.09520479  0.05127209  0.34200899    -0.73760
O471        O  0.15547088  0.05563188  0.45993750    -0.74350
O472        O  0.20349934  0.11734588  0.34206010    -0.73740
O473        O  0.12192514  0.15727186  0.43631288    -0.74500
O474        O  0.20151980  0.07127270  0.36588412    -0.73890
O475        O  0.15156739  0.16709108  0.37361869    -0.74350
O476        O  0.15020765  0.13032011  0.27025551    -0.74260
O477        O  0.11543188  0.09731423  0.26881277    -0.74050
C478        C  0.05599867  0.11173858  0.38386306     0.77740
C479        C  0.13988400  0.06384955  0.49521677     0.78230
C480        C  0.11435898  0.03167725  0.34069750     0.77190
C481        C  0.21564359  0.09261146  0.34756251     0.77570
C482        C  0.13568816  0.17516344  0.40880043     0.78700
C483        C  0.13267358  0.11420991  0.24683360     0.77750
Zn484      Zn  0.15720434  0.88747598  0.21783891     1.49720
Zn485      Zn  0.11233130  0.83976718  0.19169602     1.49360
Zn486      Zn  0.11051762  0.89844244  0.13935903     1.49110
Zn487      Zn  0.16577684  0.85920223  0.11566578     1.49480
O488        O  0.13715542  0.87014121  0.16468213    -1.83520
O489        O  0.14009572  0.87528572  0.28118760    -0.74150
O490        O  0.06989462  0.84406269  0.17416487    -0.73970
O491        O  0.10527324  0.92843428  0.18829599    -0.73490
O492        O  0.11107170  0.83820659  0.26434238    -0.74170
O493        O  0.15005493  0.92917726  0.21780473    -0.73760
O494        O  0.07081001  0.88373077  0.12899361    -0.74350
O495        O  0.16191209  0.88922563  0.05650268    -0.73740
O496        O  0.12652139  0.80359654  0.16441256    -0.74500
O497        O  0.12464276  0.91666217  0.07919779    -0.73890
O498        O  0.15726744  0.81475940  0.10401747    -0.74350
O499        O  0.20832392  0.86357595  0.14365598    -0.74260
O500        O  0.20009410  0.88225801  0.21585565    -0.74050
C501        C  0.12181216  0.85600686  0.29418262     0.77740
C502        C  0.05696864  0.86289446  0.14843510     0.78230
C503        C  0.12441725  0.93903876  0.21582684     0.77190
C504        C  0.14490325  0.91108033  0.04981326     0.77570
C505        C  0.14263909  0.79625532  0.12946642     0.78700
C506        C  0.21760871  0.87340625  0.18392751     0.77750
Zn507      Zn  0.11315324  0.06349827  0.87189779     1.49720
Zn508      Zn  0.14204573  0.12605695  0.87079365     1.49360
Zn509      Zn  0.10118917  0.11607363  0.94863612     1.49110
Zn510      Zn  0.15722508  0.08186781  0.95034485     1.49480
O511        O  0.12701575  0.09501428  0.91038364    -1.83520
O512        O  0.14162678  0.06504776  0.81164831    -0.74150
O513        O  0.11714462  0.16108493  0.86471403    -0.73970
O514        O  0.06311663  0.10624827  0.92334216    -0.73490
O515        O  0.15688792  0.11116457  0.80921106    -0.74170
O516        O  0.06817711  0.07365720  0.86472552    -0.73760
O517        O  0.10782302  0.15940141  0.94221244    -0.74350
O518        O  0.15266273  0.09735717  0.01785379    -0.73740
O519        O  0.17619219  0.14109624  0.90592210    -0.74500
O520        O  0.10538580  0.10708776  0.01815725    -0.73890
O521        O  0.19363513  0.09743863  0.92284052    -0.74350
O522        O  0.15701285  0.03851123  0.95571428    -0.74260
O523        O  0.12105017  0.02371041  0.90889389    -0.74050
C524        C  0.15756803  0.08542237  0.79333087     0.77740
C525        C  0.11236985  0.17409502  0.90405192     0.78230
C526        C  0.05226830  0.09094040  0.88989797     0.77190
C527        C  0.12940657  0.10375570  0.04009688     0.77570
C528        C  0.19618713  0.12487844  0.92176553     0.78700
C529        C  0.14100566  0.01806705  0.94003910     0.77750
Zn530      Zn  0.32152092  0.12169312  0.13318661     1.49720
Zn531      Zn  0.36318729  0.06576386  0.15474640     1.49360
Zn532      Zn  0.33937660  0.07764309  0.05188602     1.49110
Zn533      Zn  0.38106043  0.12362484  0.08610087     1.49480
O534        O  0.35159446  0.09674920  0.10933456    -1.83520
O535        O  0.30817458  0.10760654  0.19627729    -0.74150
O536        O  0.35468644  0.02413570  0.12516203    -0.73970
O537        O  0.30575159  0.09830616  0.02636445    -0.73490
O538        O  0.33684831  0.07064594  0.21764551    -0.74170
O539        O  0.28914076  0.12410405  0.08729712    -0.73760
O540        O  0.32999709  0.03580624  0.05933894    -0.74350
O541        O  0.38252832  0.12541403  0.01355669    -0.73740
O542        O  0.40879100  0.07071120  0.16085898    -0.74500
O543        O  0.36804798  0.08070746  0.99892960    -0.73890
O544        O  0.41764631  0.10768325  0.10991248    -0.74350
O545        O  0.37625375  0.16560348  0.10498144    -0.74260
O546        O  0.33222173  0.16372021  0.13689278    -0.74050
C547        C  0.31563306  0.08808129  0.22630079     0.77740
C548        C  0.33994052  0.01670535  0.08795404     0.78230
C549        C  0.28767177  0.11592000  0.04399730     0.77190
C550        C  0.37834376  0.10478402  0.98437330     0.77570
C551        C  0.42652968  0.08755610  0.13779508     0.78700
C552        C  0.35409779  0.17812060  0.12222240     0.77750
Zn553      Zn  0.10806588  0.40780536  0.35801765     1.49720
Zn554      Zn  0.09400140  0.35446932  0.43919011     1.49360
Zn555      Zn  0.15236954  0.35692648  0.38973059     1.49110
Zn556      Zn  0.13656103  0.40532154  0.45826460     1.49480
O557        O  0.12098240  0.38120821  0.40877720    -1.83520
O558        O  0.06344547  0.39733506  0.35268426    -0.74150
O559        O  0.10130343  0.31190476  0.42565256    -0.73970
O560        O  0.16670237  0.36820112  0.32636219    -0.73490
O561        O  0.05609117  0.36548490  0.41318404    -0.74170
O562        O  0.13536798  0.40048144  0.29640208    -0.73760
O563        O  0.14400250  0.31472382  0.38983775    -0.74350
O564        O  0.17852772  0.40724141  0.44966930    -0.73740
O565        O  0.09606246  0.35517144  0.51195637    -0.74500
O566        O  0.18180423  0.36025578  0.43979008    -0.73890
O567        O  0.13157122  0.38710394  0.52252955    -0.74350
O568        O  0.12276636  0.44568238  0.45852000    -0.74260
O569        O  0.11230856  0.45174521  0.38110131    -0.74050
C570        C  0.04651938  0.38126204  0.37886281     0.77740
C571        C  0.12352489  0.29971535  0.40785903     0.78230
C572        C  0.15810920  0.38436242  0.29207114     0.77190
C573        C  0.18925703  0.38308240  0.46163478     0.77570
C574        C  0.11460983  0.36761751  0.53890131     0.78700
C575        C  0.11684657  0.46217201  0.42321742     0.77750
Zn576      Zn  0.36306432  0.41246938  0.65603108     1.49720
Zn577      Zn  0.37947802  0.35526691  0.58614872     1.49360
Zn578      Zn  0.32478968  0.35642472  0.65129085     1.49110
Zn579      Zn  0.33070525  0.39749961  0.56081074     1.49480
O580        O  0.35056855  0.38084188  0.61346720    -1.83520
O581        O  0.40663960  0.40305857  0.66875388    -0.74150
O582        O  0.36902784  0.31229649  0.59443877    -0.73970
O583        O  0.32808861  0.36354913  0.72080656    -0.73490
O584        O  0.41626538  0.36632482  0.61825555    -0.74170
O585        O  0.33436460  0.41104484  0.71630009    -0.73760
O586        O  0.32933378  0.31474115  0.63850087    -0.74350
O587        O  0.28959852  0.39188757  0.56976876    -0.73740
O588        O  0.38368768  0.35956424  0.51367217    -0.74500
O589        O  0.28377392  0.36306954  0.63373283    -0.73890
O590        O  0.34076304  0.37923873  0.49826527    -0.74350
O591        O  0.33828789  0.43937864  0.55440325    -0.74260
O592        O  0.36089888  0.45350245  0.62037344    -0.74050
C593        C  0.42425324  0.38508295  0.64909780     0.77740
C594        C  0.34721350  0.30000680  0.61446309     0.78230
C595        C  0.32306972  0.38862883  0.73712432     0.77190
C596        C  0.27378696  0.37729199  0.59835946     0.77570
C597        C  0.36372632  0.36674904  0.48427354     0.78700
C598        C  0.35040145  0.45925202  0.57861042     0.77750
Zn599      Zn  0.36560591  0.62351474  0.42397527     1.49720
Zn600      Zn  0.37178977  0.58820570  0.33115246     1.49360
Zn601      Zn  0.31206536  0.58662642  0.38287516     1.49110
Zn602      Zn  0.32828195  0.63903368  0.32399172     1.49480
O603        O  0.34484332  0.61112445  0.36670007    -1.83520
O604        O  0.41001136  0.61974302  0.41518630    -0.74150
O605        O  0.35995799  0.54762638  0.33681286    -0.73970
O606        O  0.32094621  0.56691174  0.44491208    -0.73490
O607        O  0.41272416  0.59229256  0.35048190    -0.74170
O608        O  0.35633238  0.59301617  0.47930475    -0.73760
O609        O  0.31292343  0.55644980  0.33307745    -0.74350
O610        O  0.28523153  0.63095594  0.31285898    -0.73740
O611        O  0.37222004  0.59895613  0.26202852    -0.74500
O612        O  0.27115450  0.60253788  0.37317793    -0.73890
O613        O  0.34699015  0.63942154  0.25757396    -0.74350
O614        O  0.33674747  0.67608121  0.35502337    -0.74260
O615        O  0.35822185  0.66799125  0.42653246    -0.74050
C616        C  0.42491696  0.60604382  0.38413860     0.77740
C617        C  0.33498179  0.54219525  0.31997524     0.78230
C618        C  0.33996686  0.57029410  0.47784467     0.77190
C619        C  0.26546376  0.61625230  0.33432684     0.77570
C620        C  0.36304563  0.62051223  0.23788787     0.78700
C621        C  0.34896926  0.68521849  0.39315522     0.77750
Zn622      Zn  0.36499252  0.39928898  0.19147631     1.49720
Zn623      Zn  0.36278022  0.36381151  0.09976731     1.49360
Zn624      Zn  0.31867586  0.34958537  0.18936657     1.49110
Zn625      Zn  0.30835613  0.40501473  0.12364255     1.49480
O626        O  0.33817435  0.37885921  0.15045661    -1.83520
O627        O  0.40558769  0.40281483  0.16968909    -0.74150
O628        O  0.35502458  0.32008019  0.09461960    -0.73970
O629        O  0.33370796  0.34843457  0.25858588    -0.73490
O630        O  0.40581256  0.36694557  0.11770872    -0.74170
O631        O  0.36785437  0.38216331  0.25668154    -0.73760
O632        O  0.32841812  0.31104863  0.16076133    -0.74350
O633        O  0.26640269  0.39254779  0.13828995    -0.73740
O634        O  0.35843297  0.39060164  0.03996805    -0.74500
O635        O  0.27491928  0.35771670  0.19226417    -0.73890
O636        O  0.31873292  0.41671454  0.05480980    -0.74350
O637        O  0.30996313  0.44233666  0.15876369    -0.74260
O638        O  0.35089276  0.43775448  0.20065886    -0.74050
C639        C  0.41935142  0.38506589  0.14402159     0.77740
C640        C  0.34291528  0.30248270  0.12451444     0.78230
C641        C  0.35382706  0.36270916  0.27942586     0.77190
C642        C  0.25737071  0.37501474  0.17091473     0.77570
C643        C  0.34091707  0.41115612  0.02880838     0.78700
C644        C  0.32884419  0.45206895  0.18769311     0.77750
Zn645      Zn  0.10720200  0.61661754  0.17132464     1.49720
Zn646      Zn  0.08652679  0.57243491  0.07970221     1.49360
Zn647      Zn  0.13575776  0.61813667  0.07500124     1.49110
Zn648      Zn  0.14313090  0.56278418  0.13446275     1.49480
O649        O  0.11582035  0.59210606  0.11658896    -1.83520
O650        O  0.06328936  0.61156975  0.17870447    -0.74150
O651        O  0.08782404  0.58516192  0.00789471    -0.73970
O652        O  0.12776037  0.65996731  0.08068618    -0.73490
O653        O  0.05007834  0.58465711  0.11444319    -0.74170
O654        O  0.11499904  0.65992742  0.15711824    -0.73760
O655        O  0.12988647  0.60884711  0.00672403    -0.74350
O656        O  0.17487293  0.56621953  0.08819220    -0.73740
O657        O  0.09353559  0.52787546  0.07772926    -0.74500
O658        O  0.17649899  0.61391977  0.09070628    -0.73890
O659        O  0.13077526  0.52134158  0.12721154    -0.74350
O660        O  0.16216163  0.57261805  0.19619097    -0.74260
O661        O  0.13636556  0.60851497  0.22769673    -0.74050
C662        C  0.04397289  0.59969842  0.15170439     0.77740
C663        C  0.10842721  0.59777375  0.98473365     0.78230
C664        C  0.12248304  0.67353493  0.11893377     0.77190
C665        C  0.18799940  0.58996045  0.08027643     0.77570
C666        C  0.11239337  0.51123441  0.09742971     0.78700
C667        C  0.15879838  0.59209729  0.22782972     0.77750
Zn668      Zn  0.36934993  0.56987979  0.85759103     1.49720
Zn669      Zn  0.38430875  0.62664433  0.93011174     1.49360
Zn670      Zn  0.32458597  0.62003281  0.89067150     1.49110
Zn671      Zn  0.35244580  0.57331463  0.96595914     1.49480
O672        O  0.35770095  0.59703745  0.90864981    -1.83520
O673        O  0.41416521  0.57856928  0.85074961    -0.74150
O674        O  0.37588832  0.66758086  0.90823372    -0.73970
O675        O  0.31003721  0.60850330  0.82741998    -0.73490
O676        O  0.42185231  0.61322139  0.90596178    -0.74170
O677        O  0.34028451  0.57539469  0.79796156    -0.73760
O678        O  0.32895654  0.66362188  0.89363961    -0.74350
O679        O  0.31253174  0.57804088  0.98548051    -0.73740
O680        O  0.38458831  0.63040418  0.00289971    -0.74500
O681        O  0.29364970  0.61050442  0.93499924    -0.73890
O682        O  0.37449129  0.58517970  0.02384904    -0.74350
O683        O  0.35695806  0.53119186  0.95834944    -0.74260
O684        O  0.36457006  0.52588384  0.88032911    -0.74050
C685        C  0.43125606  0.59481600  0.87585651     0.77740
C686        C  0.35141728  0.67929785  0.89978821     0.78230
C687        C  0.31691787  0.59065572  0.79495840     0.77190
C688        C  0.29175280  0.59375375  0.97111852     0.77570
C689        C  0.38148006  0.61086333  0.03496865     0.78700
C690        C  0.36025557  0.51499257  0.92234231     0.77750
Zn691      Zn  0.11150906  0.61468931  0.59480518     1.49720
Zn692      Zn  0.10906912  0.57462884  0.68047574     1.49360
Zn693      Zn  0.16655376  0.57462134  0.61991578     1.49110
Zn694      Zn  0.15255694  0.62483562  0.69024924     1.49480
O695        O  0.13530825  0.59924674  0.64563353    -1.83520
O696        O  0.06790883  0.61197176  0.61001709    -0.74150
O697        O  0.11661801  0.53738653  0.65145657    -0.73970
O698        O  0.15633878  0.56145612  0.55220359    -0.73490
O699        O  0.06723143  0.58250049  0.67280063    -0.74170
O700        O  0.11677426  0.58780323  0.53583402    -0.73760
O701        O  0.16380415  0.53923847  0.66037512    -0.74350
O702        O  0.19550131  0.61400755  0.69930898    -0.73740
O703        O  0.11561937  0.57545989  0.75189365    -0.74500
O704        O  0.20832597  0.58777581  0.63600768    -0.73890
O705        O  0.13366093  0.61996125  0.75651653    -0.74350
O706        O  0.14534185  0.66475627  0.66251525    -0.74260
O707        O  0.12073804  0.65806947  0.59326172    -0.74050
C708        C  0.05389616  0.59792155  0.64228491     0.77740
C709        C  0.13952561  0.52740181  0.66982864     0.78230
C710        C  0.13415522  0.56697192  0.52595415     0.77190
C711        C  0.21463716  0.59982026  0.67597743     0.77570
C712        C  0.12205354  0.59769058  0.77664032     0.78700
C713        C  0.13248597  0.67453335  0.62493015     0.77750
Zn714      Zn  0.10728712  0.38543463  0.82413445     1.49720
Zn715      Zn  0.11318199  0.35863423  0.92451386     1.49360
Zn716      Zn  0.16063630  0.34547180  0.83669921     1.49110
Zn717      Zn  0.16210719  0.40517783  0.88929943     1.49480
O718        O  0.13629866  0.37334222  0.86993483    -1.83520
O719        O  0.06665658  0.38366230  0.84368761    -0.74150
O720        O  0.12144015  0.31511212  0.92996377    -0.73970
O721        O  0.15100944  0.34320974  0.76511707    -0.73490
O722        O  0.06879855  0.36076063  0.91359621    -0.74170
O723        O  0.10896948  0.36607748  0.76179270    -0.73760
O724        O  0.14969616  0.30704252  0.86559714    -0.74350
O725        O  0.20486092  0.39950498  0.87110748    -0.73740
O726        O  0.11926734  0.38605842  0.98239743    -0.74500
O727        O  0.20418374  0.35601757  0.83738107    -0.73890
O728        O  0.15416462  0.41661081  0.95770806    -0.74350
O729        O  0.15211483  0.44026804  0.85162169    -0.74260
O730        O  0.11450681  0.42518763  0.80883611    -0.74050
C731        C  0.05423758  0.37252878  0.87978442     0.77740
C732        C  0.13374567  0.29794565  0.90025107     0.78230
C733        C  0.12895547  0.35198508  0.74156321     0.77190
C734        C  0.21781013  0.37919893  0.84890734     0.77570
C735        C  0.13511266  0.40870822  0.98855099     0.78700
C736        C  0.13271798  0.44458945  0.82007113     0.77750
C737        C  0.13708014  0.50682896  0.70969417     0.00450
C738        C  0.15999419  0.50550005  0.74306044    -0.11420
C739        C  0.15797344  0.48784836  0.78368312     0.02690
C740        C  0.13263073  0.47101915  0.79081049     0.00370
C741        C  0.10866449  0.47482281  0.76018003    -0.11360
C742        C  0.11084925  0.49182938  0.71918582     0.02570
H743        H  0.17962860  0.51824355  0.73750851     0.15550
H744        H  0.08869059  0.46267330  0.76621552     0.15550
C745        C  0.08612244  0.49227695  0.68698461     0.37210
C746        C  0.18262824  0.48674003  0.81587592     0.37110
N747        N  0.06627238  0.49258258  0.66137603    -0.43140
N748        N  0.20239952  0.48603140  0.84162832    -0.43140
C749        C  0.29390120  0.58594168  0.75785707     0.00450
C750        C  0.29587103  0.59825732  0.71138450    -0.11420
C751        C  0.27069968  0.60177258  0.68231543     0.02690
C752        C  0.24300455  0.59383530  0.70043941     0.00370
C753        C  0.24151830  0.58017086  0.74560421    -0.11360
C754        C  0.26635299  0.57600654  0.77387355     0.02570
H755        H  0.31661820  0.60666645  0.69896653     0.15550
H756        H  0.22051349  0.57337330  0.75962979     0.15550
C757        C  0.26258726  0.56333478  0.82123727     0.37210
C758        C  0.27351346  0.61513912  0.63552055     0.37110
N759        N  0.25948793  0.55343918  0.85928086    -0.43140
N760        N  0.27578829  0.62577557  0.59786622    -0.43140
C761        C  0.10852655  0.59940824  0.93123089     0.00450
C762        C  0.09720900  0.57633597  0.90437784    -0.11420
C763        C  0.10077129  0.57535052  0.85418788     0.02690
C764        C  0.11613560  0.59787331  0.82963721     0.00370
C765        C  0.12605554  0.62162182  0.85657382    -0.11360
C766        C  0.12230315  0.62267073  0.90645960     0.02570
H767        H  0.08636289  0.55849829  0.92281192     0.15550
H768        H  0.13715664  0.63952248  0.83876171     0.15550
C769        C  0.13257965  0.64824169  0.93111793     0.37210
C770        C  0.08824351  0.55090270  0.82938516     0.37110
N771        N  0.14081240  0.66874247  0.95076711    -0.43140
N772        N  0.07795002  0.53132539  0.80978472    -0.43140
C773        C  0.12879715  0.42911932  0.02856527     0.00450
C774        C  0.09990352  0.43834783  0.03495195    -0.11420
C775        C  0.09348668  0.46400961  0.06000257     0.02690
C776        C  0.11614311  0.48061810  0.08064445     0.00370
C777        C  0.14467067  0.46957879  0.07842807    -0.11360
C778        C  0.15116737  0.44454485  0.05212446     0.02570
H779        H  0.08245065  0.42688300  0.01684153     0.15550
H780        H  0.16248536  0.48179229  0.09407668     0.15550
C781        C  0.18122149  0.43601386  0.04774119     0.37210
C782        C  0.06362050  0.47329270  0.06248894     0.37110
N783        N  0.20532627  0.42928144  0.04414324    -0.43140
N784        N  0.03964562  0.48068565  0.06447015    -0.43140
C785        C  0.21548569  0.59037822  0.05490586     0.00450
C786        C  0.22328431  0.61635448  0.03152689    -0.11420
C787        C  0.24787907  0.61789768  0.00329054     0.02690
C788        C  0.26503925  0.59293951  0.99820475     0.00370
C789        C  0.25754311  0.56701440  0.02183014    -0.11360
C790        C  0.23290125  0.56548566  0.05032617     0.02570
H791        H  0.20990615  0.63557436  0.03456238     0.15550
H792        H  0.27098954  0.54789102  0.01800915     0.15550
C793        C  0.22647359  0.53834269  0.07458318     0.37210
C794        C  0.25525274  0.64558965  0.98150395     0.37110
N795        N  0.22139874  0.51655253  0.09387377    -0.43140
N796        N  0.26104220  0.66778208  0.96413128    -0.43140
C797        C  0.35787884  0.48317809  0.93211959     0.00450
C798        C  0.38089154  0.46962175  0.95661059    -0.11420
C799        C  0.37642169  0.44422717  0.98429134     0.02690
C800        C  0.34820053  0.43184467  0.98851040     0.00370
C801        C  0.32568882  0.44415396  0.96089192    -0.11360
C802        C  0.33035373  0.46936127  0.93274675     0.02570
H803        H  0.40191857  0.48038259  0.95770917     0.15550
H804        H  0.30391603  0.43514542  0.96369843     0.15550
C805        C  0.30586540  0.48214217  0.90817969     0.37210
C806        C  0.40047191  0.43366889  0.01281721     0.37110
N807        N  0.28617503  0.49222984  0.88838927    -0.43140
N808        N  0.41975029  0.42537623  0.03581032    -0.43140
C809        C  0.37127416  0.62255337  0.18606379     0.00450
C810        C  0.39165121  0.60249450  0.16859317    -0.11420
C811        C  0.39707057  0.59977244  0.11948250     0.02690
C812        C  0.38286876  0.61808781  0.08644100     0.00370
C813        C  0.36462615  0.64000891  0.10369662    -0.11360
C814        C  0.35844417  0.64223070  0.15298839     0.02570
H815        H  0.40263782  0.58787282  0.19312794     0.15550
H816        H  0.35335699  0.65396514  0.07828988     0.15550
C817        C  0.33755996  0.66366908  0.16770631     0.37210
C818        C  0.41644700  0.57718685  0.10379577     0.37110
N819        N  0.32074423  0.68083257  0.17932122    -0.43140
N820        N  0.43188664  0.55896671  0.09145293    -0.43140
C821        C  0.23722566  0.61144025  0.30886916     0.00450
C822        C  0.21017518  0.61190294  0.33285395    -0.11420
C823        C  0.18388989  0.60589693  0.30796563     0.02690
C824        C  0.18463545  0.59832299  0.25883794     0.00370
C825        C  0.21176728  0.59746986  0.23568149    -0.11360
C826        C  0.23760492  0.60385916  0.25970134     0.02570
H827        H  0.20955288  0.61705957  0.37078056     0.15550
H828        H  0.21289735  0.59195851  0.19785634     0.15550
C829        C  0.26444575  0.60093015  0.23305753     0.37210
C830        C  0.15673556  0.60657273  0.33375894     0.37110
N831        N  0.28588085  0.59849923  0.21170963    -0.43140
N832        N  0.13493139  0.60702888  0.35447589    -0.43140
C833        C  0.32546668  0.48001854  0.20985332     0.00450
C834        C  0.35048197  0.49727946  0.21121276    -0.11420
C835        C  0.35440365  0.51715085  0.24765014     0.02690
C836        C  0.33194462  0.52120147  0.28156183     0.00370
C837        C  0.30555764  0.50612240  0.27689836    -0.11360
C838        C  0.30239099  0.48497711  0.24185287     0.02570
H839        H  0.36832188  0.49295271  0.18676250     0.15550
H840        H  0.28816073  0.50951849  0.30253786     0.15550
C841        C  0.27702516  0.46642254  0.24351935     0.37210
C842        C  0.38237145  0.53149949  0.25054282     0.37110
N843        N  0.25677207  0.45148643  0.24571889    -0.43140
N844        N  0.40507606  0.54232850  0.25312742    -0.43140
C845        C  0.36660101  0.36086219  0.43263027     0.00450
C846        C  0.34761589  0.34069276  0.41166548    -0.11420
C847        C  0.34480224  0.33889388  0.36156728     0.02690
C848        C  0.36039211  0.35849144  0.33161125     0.00370
C849        C  0.38127938  0.37688351  0.35306160    -0.11360
C850        C  0.38454945  0.37806814  0.40302405     0.02570
H851        H  0.33418260  0.32699804  0.43461917     0.15550
H852        H  0.39423087  0.39153321  0.33103311     0.15550
C853        C  0.40495584  0.39858380  0.42312095     0.37210
C854        C  0.32541274  0.31713361  0.34242199     0.37110
N855        N  0.42126796  0.41509041  0.43914249    -0.43140
N856        N  0.31007090  0.29946805  0.32718914    -0.43140
C857        C  0.34606403  0.54384472  0.50772557     0.00450
C858        C  0.34917825  0.51815746  0.48169904    -0.11420
C859        C  0.35223431  0.49124975  0.50425385     0.02690
C860        C  0.35200051  0.48884758  0.55520614     0.00370
C861        C  0.35076582  0.51484184  0.58185400    -0.11360
C862        C  0.34796168  0.54227721  0.55841141     0.02570
H863        H  0.34882889  0.51904102  0.44265901     0.15550
H864        H  0.35082708  0.51369330  0.62078155     0.15550
C865        C  0.34586654  0.56816092  0.58681862     0.37210
C866        C  0.35512533  0.46645522  0.47311635     0.37110
N867        N  0.34432402  0.58900032  0.60955022    -0.43140
N868        N  0.35702998  0.44678900  0.44775542    -0.43140
C869        C  0.30092216  0.39032205  0.77693009     0.00450
C870        C  0.29469477  0.36465899  0.80322198    -0.11420
C871        C  0.26873411  0.36112266  0.82938188     0.02690
C872        C  0.24837615  0.38384061  0.83139330     0.00370
C873        C  0.25586146  0.41056627  0.80944371    -0.11360
C874        C  0.28153305  0.41388206  0.78196679     0.02570
H875        H  0.30928722  0.34633070  0.80067927     0.15550
H876        H  0.24045735  0.42828890  0.81043919     0.15550
C877        C  0.28579767  0.44071476  0.75573264     0.37210
C878        C  0.26309806  0.33354264  0.85259771     0.37110
N879        N  0.28906246  0.46221179  0.73456463    -0.43140
N880        N  0.25860906  0.31141078  0.87117157    -0.43140
C881        C  0.12678657  0.34849113  0.68894004     0.00450
C882        C  0.09891808  0.34569632  0.66844307    -0.11420
C883        C  0.09436355  0.35057800  0.61924767     0.02690
C884        C  0.11800330  0.35874433  0.58979819     0.00370
C885        C  0.14614535  0.35932059  0.60963945    -0.11360
C886        C  0.15076141  0.35419136  0.65864028     0.02570
H887        H  0.08035709  0.34127798  0.69147158     0.15550
H888        H  0.16460500  0.36468807  0.58697444     0.15550
C889        C  0.17993061  0.35751259  0.67722400     0.37210
C890        C  0.06502469  0.34916268  0.60087431     0.37110
N891        N  0.20332525  0.36024259  0.69194826    -0.43140
N892        N  0.04149484  0.34800764  0.58619700    -0.43140
C893        C  0.11713951  0.49390970  0.43351626     0.00450
C894        C  0.09515247  0.50496349  0.46309046    -0.11420
C895        C  0.09935773  0.53052234  0.48968945     0.02690
C896        C  0.12627400  0.54564609  0.48762175     0.00370
C897        C  0.14758747  0.53563176  0.45561783    -0.11360
C898        C  0.14310463  0.51025468  0.42842608     0.02570
H899        H  0.07552746  0.49221628  0.46869133     0.15550
H900        H  0.16844897  0.54667086  0.45395526     0.15550
C901        C  0.16655165  0.49988452  0.39882585     0.37210
C902        C  0.07705274  0.53853570  0.52358662     0.37110
N903        N  0.18531150  0.49158142  0.37498609    -0.43140
N904        N  0.05927285  0.54480639  0.55097573    -0.43140
C905        C  0.24426078  0.37314573  0.58301368     0.00450
C906        C  0.22723260  0.39806175  0.57963239    -0.11420
C907        C  0.20862050  0.40192634  0.54063144     0.02690
C908        C  0.20712958  0.38024874  0.50489463     0.00370
C909        C  0.22116251  0.35370291  0.51260152    -0.11360
C910        C  0.23954875  0.34989568  0.55148258     0.02570
H911        H  0.23105934  0.41585456  0.60418946     0.15550
H912        H  0.21931085  0.33638984  0.48657680     0.15550
C913        C  0.25758935  0.32428907  0.55216867     0.37210
C914        C  0.19220344  0.42852593  0.53802598     0.37110
N915        N  0.27219603  0.30395202  0.55119218    -0.43140
N916        N  0.17902863  0.44983226  0.53625942    -0.43140
C917        C  0.17628258  0.38271516  0.24749674     0.00450
C918        C  0.18715824  0.35513644  0.23562150    -0.11420
C919        C  0.21208408  0.35190288  0.20716589     0.02690
C920        C  0.22655151  0.37656133  0.18836880     0.00370
C921        C  0.21342094  0.40391523  0.19469425    -0.11360
C922        C  0.18882534  0.40722669  0.22469097     0.02570
H923        H  0.17751450  0.33595413  0.25209751     0.15550
H924        H  0.22388548  0.42308692  0.17977562     0.15550
C925        C  0.17890319  0.43608333  0.23543889     0.37210
C926        C  0.22316400  0.32301848  0.19982505     0.37110
N927        N  0.17103140  0.45925624  0.24414194    -0.43140
N928        N  0.23205772  0.29987007  0.19404927    -0.43140
C929        C  0.35226839  0.21005166  0.12094807     0.00450
C930        C  0.37137934  0.22678555  0.14852425    -0.11420
C931        C  0.36887486  0.25708491  0.14910538     0.02690
C932        C  0.34771138  0.27105001  0.12030032     0.00370
C933        C  0.32914378  0.25437937  0.09169621    -0.11360
C934        C  0.33112483  0.22404532  0.09206948     0.02570
H935        H  0.38755522  0.21614508  0.17080933     0.15550
H936        H  0.31261176  0.26500041  0.07011464     0.15550
C937        C  0.31133610  0.20769195  0.06222219     0.37210
C938        C  0.38744416  0.27337031  0.18106132     0.37110
N939        N  0.29548757  0.19461202  0.03828552    -0.43140
N940        N  0.40210968  0.28637388  0.20706060    -0.43140
C941        C  0.22038548  0.13716340  0.94749225     0.00450
C942        C  0.21547803  0.14124948  0.99663915    -0.11420
C943        C  0.23756152  0.13573636  0.02959843     0.02690
C944        C  0.26510630  0.12746070  0.01238095     0.00370
C945        C  0.27095321  0.12850635  0.96277295    -0.11360
C946        C  0.24856215  0.13299156  0.93011187     0.02570
H947        H  0.19346497  0.14442083  0.00959105     0.15550
H948        H  0.29252101  0.12363486  0.94936845     0.15550
C949        C  0.25416460  0.13004740  0.87930583     0.37210
C950        C  0.23029004  0.13494157  0.08011554     0.37110
N951        N  0.25858907  0.12773562  0.83856827    -0.43140
N952        N  0.22468728  0.13397827  0.12064972    -0.43140
C953        C  0.11461622  0.20628750  0.90564215     0.00450
C954        C  0.11338827  0.22175431  0.86204941    -0.11420
C955        C  0.11947863  0.25143821  0.86001482     0.02690
C956        C  0.12706124  0.26654197  0.90234421     0.00370
C957        C  0.12699967  0.25160017  0.94638993    -0.11360
C958        C  0.12119297  0.22166211  0.94841982     0.02570
H959        H  0.10807060  0.21052860  0.82904334     0.15550
H960        H  0.13238463  0.26315127  0.97904755     0.15550
C961        C  0.12376857  0.20728336  0.99454985     0.37210
C962        C  0.11693854  0.26597299  0.81392742     0.37110
N963        N  0.12597451  0.19581168  0.03154488    -0.43140
N964        N  0.11483537  0.27755546  0.77701191    -0.42180
C965        C  0.12790345  0.70524675  0.11955723     0.00450
C966        C  0.14447854  0.71658289  0.15737771    -0.11420
C967        C  0.15236795  0.74593289  0.15801511     0.02690
C968        C  0.14342767  0.76477670  0.12057538     0.00370
C969        C  0.12753964  0.75338275  0.08195343    -0.11360
C970        C  0.11991733  0.72379635  0.08099400     0.02570
H971        H  0.15154875  0.70239092  0.18637207     0.15550
H972        H  0.11958875  0.76788615  0.05405447     0.15550
C973        C  0.10231110  0.71339796  0.04168760     0.37210
C974        C  0.16901504  0.75655638  0.19835546     0.37110
N975        N  0.08806932  0.70507462  0.01032125    -0.43140
N976        N  0.18236964  0.76510803  0.23059868    -0.43140
C977        C  0.14910118  0.93289958  0.01023502     0.00450
C978        C  0.17042353  0.95429236  0.01678328    -0.11420
C979        C  0.16899743  0.98126282  0.99273243     0.02690
C980        C  0.14561712  0.98777039  0.96062117     0.00370
C981        C  0.12560552  0.96525399  0.95114051    -0.11360
C982        C  0.12715361  0.93824721  0.97561092     0.02570
H983        H  0.18711018  0.95082417  0.04380603     0.15550
H984        H  0.10792580  0.96908476  0.92613088     0.15550
C985        C  0.10566159  0.91631266  0.96515673     0.37210
C986        C  0.19123938  0.00229872  0.00421369     0.37110
N987        N  0.08871520  0.89855625  0.95602289    -0.43140
N988        N  0.20870910  0.01955880  0.01328246    -0.43140
C989        C  0.13189557  0.20662656  0.41508891     0.00450
C990        C  0.15667231  0.22431505  0.41652290    -0.11420
C991        C  0.15434586  0.25452658  0.41497639     0.02690
C992        C  0.12663904  0.26769143  0.41049156     0.00370
C993        C  0.10173974  0.24989971  0.41050450    -0.11360
C994        C  0.10415844  0.21957947  0.41255763     0.02570
H995        H  0.17800318  0.21441613  0.41844466     0.15550
H996        H  0.08039085  0.25964258  0.40759414     0.15550
C997        C  0.07802438  0.20222888  0.40864500     0.37210
C998        C  0.18082180  0.27130523  0.41970832     0.37110
N999        N  0.05709983  0.18832938  0.40526958    -0.43140
N1000       N  0.20205172  0.28466533  0.42377002    -0.43140
C1001       C  0.13182392  0.11368814  0.19332837     0.00450
C1002       C  0.11239964  0.09390686  0.17158686    -0.11420
C1003       C  0.11120915  0.09070793  0.12191501     0.02690
C1004       C  0.13005821  0.10701912  0.09250966     0.00370
C1005       C  0.14910443  0.12721934  0.11335082    -0.11360
C1006       C  0.14981734  0.13105864  0.16337863     0.02570
H1007       H  0.09805249  0.08045230  0.19333945     0.15550
H1008       H  0.16299112  0.14041824  0.09038415     0.15550
C1009       C  0.16864347  0.15330246  0.18247562     0.37210
C1010       C  0.09099102  0.06987990  0.10204651     0.37110
N1011       N  0.18362343  0.17130743  0.19759682    -0.43140
N1012       N  0.07475527  0.05330957  0.08599658    -0.43140
C1013       C  0.29734191  0.08631808  0.27066671     0.00450
C1014       C  0.28122223  0.06099822  0.28050715    -0.11420
C1015       C  0.25580422  0.06183104  0.30903064     0.02690
C1016       C  0.24599287  0.08852137  0.32843468     0.00370
C1017       C  0.26398236  0.11304823  0.32255472    -0.11360
C1018       C  0.28928629  0.11213832  0.29434697     0.02570
H1019       H  0.28685438  0.04110638  0.26224649     0.15550
H1020       H  0.25739226  0.13356836  0.33779305     0.15550
C1021       C  0.30563884  0.13870187  0.28739116     0.37210
C1022       C  0.23886325  0.03549903  0.31352586     0.37110
N1023       N  0.31871056  0.15997776  0.28168517    -0.43140
N1024       N  0.22534323  0.01433197  0.31696191    -0.43140
C1025       C  0.10778038  0.00502789  0.31574914     0.00450
C1026       C  0.09639165  0.00784613  0.26910268    -0.11420
C1027       C  0.10074352  0.98604622  0.23563464     0.02690
C1028       C  0.11632641  0.96126159  0.24962719     0.00370
C1029       C  0.12464325  0.95711362  0.29768537    -0.11360
C1030       C  0.12023417  0.97881391  0.33105355     0.02570
H1031       H  0.08695675  0.02823888  0.25732158     0.15550
H1032       H  0.13551485  0.93730843  0.30872519     0.15550
C1033       C  0.12995121  0.97446799  0.37998967     0.37210
C1034       C  0.09187610  0.99085960  0.18639516     0.37110
N1035       N  0.13756252  0.97103104  0.41928418    -0.43140
N1036       N  0.08494637  0.99461271  0.14683547    -0.43140
C1037       C  0.35919836  0.77805659  0.39974759     0.00450
C1038       C  0.36181455  0.76376580  0.35588759    -0.11420
C1039       C  0.35937114  0.73361479  0.35350301     0.02690
C1040       C  0.35375660  0.71695772  0.39578866     0.00370
C1041       C  0.35271662  0.73101491  0.44006791    -0.11360
C1042       C  0.35549881  0.76125682  0.44251366     0.02570
H1043       H  0.36534144  0.77620540  0.32310492     0.15550
H1044       H  0.34927160  0.71843206  0.47271760     0.15550
C1045       C  0.35522822  0.77416866  0.48967281     0.37210
C1046       C  0.36358360  0.72045453  0.30702165     0.37110
N1047       N  0.35515122  0.78440085  0.52753152    -0.43140
N1048       N  0.36701641  0.70999078  0.26978646    -0.43140
C1049       C  0.24921420  0.87656338  0.19499820     0.00450
C1050       C  0.25979688  0.90474197  0.20312398    -0.11420
C1051       C  0.28579904  0.90955943  0.22839246     0.02690
C1052       C  0.30199854  0.88587578  0.24658729     0.00370
C1053       C  0.29305384  0.85763131  0.23392382    -0.11360
C1054       C  0.26679310  0.85284702  0.20861013     0.02570
H1055       H  0.24655191  0.92317474  0.19274496     0.15550
H1056       H  0.30496955  0.83915693  0.24790680     0.15550
C1057       C  0.25691606  0.82346123  0.20122988     0.37210
C1058       C  0.29432544  0.93914243  0.23814682     0.37110
N1059       N  0.24896652  0.79989952  0.19527688    -0.43140
N1060       N  0.30108270  0.96285736  0.24599935    -0.43140
C1061       C  0.09328715  0.86403045  0.44043074     0.00450
C1062       C  0.10333241  0.83697457  0.42421122    -0.11420
C1063       C  0.11184714  0.83323240  0.37609461     0.02690
C1064       C  0.11060998  0.85689742  0.34382477     0.00370
C1065       C  0.09834385  0.88303062  0.35899874    -0.11360
C1066       C  0.08938473  0.88668784  0.40649514     0.02570
H1067       H  0.10647624  0.81935199  0.44972534     0.15550
H1068       H  0.09611928  0.90088854  0.33362687     0.15550
C1069       C  0.07680513  0.91418262  0.41952401     0.37210
C1070       C  0.12364093  0.80572509  0.36154896     0.37110
N1071       N  0.06669138  0.93620738  0.42982666    -0.43140
N1072       N  0.13311004  0.78367609  0.34983987    -0.43140
C1073       C  0.12742784  0.99346896  0.59592086     0.00450
C1074       C  0.15548889  0.00031329  0.57913257    -0.11420
C1075       C  0.16080750  0.02499156  0.55045470     0.02690
C1076       C  0.13778698  0.04392887  0.53810852     0.00370
C1077       C  0.11043717  0.03893701  0.55974635    -0.11360
C1078       C  0.10507305  0.01381275  0.58797150     0.02570
H1079       H  0.17288945  0.98484830  0.58483017     0.15550
H1080       H  0.09242200  0.05305545  0.55072769     0.15550
C1081       C  0.07581222  0.00780332  0.60395375     0.37210
C1082       C  0.18968047  0.02905555  0.53104309     0.37110
N1083       N  0.05233921  0.00294438  0.61677051    -0.43140
N1084       N  0.21268682  0.03223104  0.51495712    -0.43140
C1085       C  0.21259486  0.88235665  0.54102243     0.00450
C1086       C  0.23175927  0.85923684  0.54834680    -0.11420
C1087       C  0.25844352  0.85899108  0.52535831     0.02690
C1088       C  0.26596279  0.88241938  0.49489240     0.00370
C1089       C  0.24701371  0.90576734  0.48840770    -0.11360
C1090       C  0.22037981  0.90598674  0.51111019     0.02570
H1091       H  0.22561655  0.84101768  0.57118065     0.15550
H1092       H  0.25310091  0.92408975  0.46571392     0.15550
C1093       C  0.20204332  0.93103516  0.50364239     0.37210
C1094       C  0.27688373  0.83401061  0.53228257     0.37110
N1095       N  0.18743524  0.95107565  0.49733304    -0.43140
N1096       N  0.29155091  0.81395176  0.53796919    -0.43140
C1097       C  0.12438123  0.76724780  0.62425353     0.00450
C1098       C  0.09988767  0.74947877  0.63205408    -0.11420
C1099       C  0.10204696  0.71920185  0.63049209     0.02690
C1100       C  0.12904416  0.70615211  0.62068795     0.00370
C1101       C  0.15345596  0.72364748  0.61224644    -0.11360
C1102       C  0.15133888  0.75394751  0.61322715     0.02570
H1103       H  0.07908655  0.75921370  0.64032825     0.15550
H1104       H  0.17423802  0.71357761  0.60491447     0.15550
C1105       C  0.17701743  0.77062886  0.60103198     0.37210
C1106       C  0.07658604  0.70187636  0.64144848     0.37110
N1107       N  0.19760499  0.78388669  0.59095482    -0.43140
N1108       N  0.05626889  0.68793932  0.65045141    -0.43140
C1109       C  0.34222437  0.77295133  0.89984225     0.00450
C1110       C  0.36924776  0.76002479  0.88986865    -0.11420
C1111       C  0.37266307  0.72992789  0.88908426     0.02690
C1112       C  0.34872689  0.71155588  0.89910718     0.00370
C1113       C  0.32183213  0.72438140  0.91073497    -0.11360
C1114       C  0.31844277  0.75474333  0.91134232     0.02570
H1115       H  0.38788113  0.77360623  0.88110266     0.15550
H1116       H  0.30330837  0.71065393  0.91934128     0.15550
C1117       C  0.29016657  0.76649210  0.92188542     0.37210
C1118       C  0.40074199  0.71874190  0.87544263     0.37110
N1119       N  0.26748881  0.77589840  0.93044466    -0.43140
N1120       N  0.42323623  0.70986766  0.86435874    -0.43140
C1121       C  0.35507781  0.85867064  0.67742376     0.00450
C1122       C  0.38328016  0.85214262  0.66098348    -0.11420
C1123       C  0.39240325  0.86006307  0.61449660     0.02690
C1124       C  0.37377185  0.87612667  0.58434660     0.00370
C1125       C  0.34558136  0.88233167  0.60020313    -0.11360
C1126       C  0.33583718  0.87316037  0.64555274     0.02570
H1127       H  0.39836370  0.84096993  0.68461252     0.15550
H1128       H  0.33063654  0.89341942  0.57617093     0.15550
C1129       C  0.30589882  0.87881858  0.65773878     0.37210
C1130       C  0.42104380  0.85181344  0.59864757     0.37110
N1131       N  0.28174752  0.88294422  0.66697390    -0.43140
N1132       N  0.44396844  0.84512803  0.58584237    -0.43140
C1133       C  0.17119756  0.88586740  0.78470088     0.00450
C1134       C  0.18673996  0.91157864  0.79360863    -0.11420
C1135       C  0.21344870  0.91101697  0.81857571     0.02690
C1136       C  0.22483236  0.88449791  0.83643961     0.00370
C1137       C  0.20743984  0.85950618  0.83298300    -0.11360
C1138       C  0.18106611  0.85993571  0.80708082     0.02570
H1139       H  0.17979835  0.93159624  0.77645836     0.15550
H1140       H  0.21586430  0.83896881  0.84605133     0.15550
C1141       C  0.16581332  0.83283252  0.80008803     0.37210
C1142       C  0.23008093  0.93759693  0.82184991     0.37110
N1143       N  0.15364621  0.81110071  0.79426911    -0.43140
N1144       N  0.24342997  0.95888686  0.82439592    -0.43140
C1145       C  0.33235044  0.93537719  0.01468243     0.00450
C1146       C  0.30728907  0.95150203  0.02454280    -0.11420
C1147       C  0.30869352  0.97636506  0.05366009     0.02690
C1148       C  0.33547938  0.98566997  0.07371429     0.00370
C1149       C  0.35971715  0.96755330  0.06852742    -0.11360
C1150       C  0.35836278  0.94275684  0.03915531     0.02570
H1151       H  0.28716303  0.94624490  0.00614258     0.15550
H1152       H  0.38043454  0.97418233  0.08362258     0.15550
C1153       C  0.38453075  0.92620301  0.03193860     0.37210
C1154       C  0.28266525  0.99313658  0.06041202     0.37110
N1155       N  0.40545559  0.91283095  0.02625380    -0.43140
N1156       N  0.26203780  0.00685329  0.06650561    -0.43140
C1157       C  0.34200106  0.26821329  0.60909731     0.00450
C1158       C  0.36405348  0.25098619  0.58944906    -0.11420
C1159       C  0.36099423  0.22080210  0.58721742     0.02690
C1160       C  0.33517846  0.20727242  0.60355473     0.00370
C1161       C  0.31222795  0.22438250  0.61945794    -0.11360
C1162       C  0.31541194  0.25451384  0.62301618     0.02570
H1163       H  0.38432527  0.26088862  0.57780467     0.15550
H1164       H  0.29263784  0.21395828  0.63304457     0.15550
C1165       C  0.29128573  0.27019550  0.64326911     0.37210
C1166       C  0.38531182  0.20388176  0.57060009     0.37110
N1167       N  0.27186388  0.28254282  0.65965953    -0.43140
N1168       N  0.40479308  0.19025771  0.55754010    -0.43140
C1169       C  0.37145441  0.11517367  0.83271749     0.00450
C1170       C  0.38209978  0.08907110  0.85216598    -0.11420
C1171       C  0.38748050  0.08604589  0.90124126     0.02690
C1172       C  0.38207048  0.10946949  0.93216262     0.00370
C1173       C  0.37437293  0.13652425  0.91219207    -0.11360
C1174       C  0.36904950  0.13957383  0.86271738     0.02570
H1175       H  0.38530901  0.07049874  0.82908301     0.15550
H1176       H  0.37027649  0.15473609  0.93563109     0.15550
C1177       C  0.35905734  0.16721333  0.84460999     0.37210
C1178       C  0.39757639  0.05832317  0.91903001     0.37110
N1179       N  0.35110665  0.18942628  0.83020737    -0.43140
N1180       N  0.40562208  0.03608583  0.93317592    -0.43140
C1181       C  0.18161762  0.07931005  0.75899311     0.00450
C1182       C  0.20567174  0.06455048  0.77778446    -0.11420
C1183       C  0.23344876  0.06735567  0.75711580     0.02690
C1184       C  0.23785444  0.08475399  0.71498143     0.00370
C1185       C  0.21308899  0.09773040  0.69411598    -0.11360
C1186       C  0.18541127  0.09545796  0.71601887     0.02570
H1187       H  0.20333232  0.05285813  0.81162219     0.15550
H1188       H  0.21546279  0.11070247  0.66166344     0.15550
C1189       C  0.16118752  0.11050744  0.69452833     0.37210
C1190       C  0.25705449  0.05349331  0.78263709     0.37110
N1191       N  0.14165438  0.12238759  0.67720981    -0.43140
N1192       N  0.27584484  0.04255719  0.80361297    -0.43140
C1193       C  0.36651884  0.99910984  0.66543427     0.00450
C1194       C  0.34127584  0.98243108  0.66114337    -0.11420
C1195       C  0.33311208  0.96399246  0.69852172     0.02690
C1196       C  0.35233262  0.95964923  0.73762186     0.00370
C1197       C  0.38012211  0.97229497  0.73666016    -0.11360
C1198       C  0.38739920  0.99205077  0.70051227     0.02570
H1199       H  0.32528371  0.98822640  0.63398989     0.15550
H1200       H  0.39557635  0.96785648  0.76524942     0.15550
C1201       C  0.41415468  0.00845163  0.70472192     0.37210
C1202       C  0.30347264  0.95341249  0.69892754     0.37110
N1203       N  0.43548909  0.02168638  0.70839987    -0.43140
N1204       N  0.27954830  0.94551516  0.69958687    -0.43140
C1205       C  0.33936309  0.00058945  0.44615885     0.00450
C1206       C  0.31540882  0.00401955  0.47702890    -0.11420
C1207       C  0.31120357  0.02982616  0.50286393     0.02690
C1208       C  0.33061853  0.05356969  0.49669406     0.00370
C1209       C  0.35314370  0.05076632  0.46256044    -0.11360
C1210       C  0.35784727  0.02459519  0.43807369     0.02570
H1211       H  0.30123641  0.98557643  0.48409322     0.15550
H1212       H  0.36835222  0.06855000  0.45711661     0.15550
C1213       C  0.38218127  0.02265998  0.40557765     0.37210
C1214       C  0.28899545  0.02980891  0.53954249     0.37110
N1215       N  0.40165014  0.02110439  0.37940904    -0.43140
N1216       N  0.27150280  0.02958771  0.56944309    -0.43140
C1217       C  0.95073333  0.87836245  0.65443173     0.00450
C1218       C  0.96448493  0.89309311  0.61641827    -0.11420
C1219       C  0.99461475  0.89741206  0.61670639     0.02690
C1220       C  0.01134101  0.88769411  0.65621833     0.00370
C1221       C  0.99749711  0.87427709  0.69532415    -0.11360
C1222       C  0.96737497  0.86953719  0.69473292     0.02570
H1223       H  0.95177898  0.90049765  0.58586450     0.15550
H1224       H  0.01036778  0.86635735  0.72533173     0.15550
C1225       C  0.95401560  0.85620489  0.73638989     0.37210
C1226       C  0.00814505  0.91094423  0.57527189     0.37110
N1227       N  0.94338042  0.84567539  0.76998339    -0.43140
N1228       N  0.01906133  0.92167592  0.54207355    -0.43140
C1229       C  0.84634921  0.95324516  0.76891410     0.00450
C1230       C  0.87074841  0.97093146  0.76156710    -0.11420
C1231       C  0.87235305  0.99797957  0.78227267     0.02690
C1232       C  0.84955754  0.00696609  0.81269090     0.00370
C1233       C  0.82657169  0.98806839  0.82386586    -0.11360
C1234       C  0.82453943  0.96130748  0.80174866     0.02570
H1235       H  0.88778464  0.96439496  0.73698048     0.15550
H1236       H  0.80931763  0.99487350  0.84779046     0.15550
C1237       C  0.79864495  0.94411204  0.81013358     0.37210
C1238       C  0.89611999  0.01673439  0.76744383     0.37110
N1239       N  0.77780336  0.93048788  0.81678665    -0.43140
N1240       N  0.91501792  0.03174015  0.75517104    -0.43140
C1241       C  0.95946553  0.10573603  0.87327802     0.00450
C1242       C  0.97324833  0.08411380  0.84574548    -0.11420
C1243       C  0.00322412  0.07862547  0.84983234     0.02690
C1244       C  0.02030510  0.09514515  0.88175355     0.00370
C1245       C  0.00637056  0.11720469  0.90830157    -0.11360
C1246       C  0.97655767  0.12244738  0.90461454     0.02570
H1247       H  0.96042105  0.07081428  0.82163183     0.15550
H1248       H  0.01873049  0.13072143  0.93271153     0.15550
C1249       C  0.96436058  0.14541782  0.93315770     0.37210
C1250       C  0.01548028  0.05559070  0.82163275     0.37110
N1251       N  0.95469591  0.16378957  0.95620777    -0.43140
N1252       N  0.02517729  0.03705636  0.79897943    -0.43140
C1253       C  0.45225648  0.88788648  0.86199060     0.00450
C1254       C  0.46780198  0.86205951  0.85552672    -0.11420
C1255       C  0.49806820  0.86197955  0.85328780     0.02690
C1256       C  0.51391209  0.88814347  0.85785801     0.00370
C1257       C  0.49869030  0.91425915  0.86221818    -0.11360
C1258       C  0.46810102  0.91440559  0.86423183     0.02570
H1259       H  0.45633456  0.84152814  0.85259176     0.15550
H1260       H  0.51070949  0.93440266  0.86627081     0.15550
C1261       C  0.45384371  0.94208049  0.86856562     0.37210
C1262       C  0.51239286  0.83443560  0.84702994     0.37110
N1263       N  0.44251093  0.96432892  0.87193266    -0.43140
N1264       N  0.52375650  0.81231772  0.84226963    -0.43140
C1265       C  0.67386797  0.88846485  0.74186620     0.00450
C1266       C  0.69244704  0.91225436  0.73378571    -0.11420
C1267       C  0.71796907  0.90937251  0.70617406     0.02690
C1268       C  0.72520253  0.88242604  0.68504439     0.00370
C1269       C  0.70480386  0.85974541  0.68823509    -0.11360
C1270       C  0.67949498  0.86250569  0.71650861     0.02570
H1271       H  0.68878214  0.93218888  0.75325962     0.15550
H1272       H  0.71002952  0.83887821  0.67284217     0.15550
C1273       C  0.66076545  0.83749380  0.72237358     0.37210
C1274       C  0.73791862  0.93366521  0.70381302     0.37110
N1275       N  0.64573492  0.81746046  0.72714469    -0.43140
N1276       N  0.75396352  0.95307643  0.70204955    -0.43140
C1277       C  0.96419909  0.87161165  0.14292974     0.00450
C1278       C  0.98148911  0.87838938  0.10253427    -0.11420
C1279       C  0.01133440  0.87385932  0.10253857     0.02690
C1280       C  0.02500778  0.86237256  0.14372038     0.00370
C1281       C  0.00789649  0.85436987  0.18362988    -0.11360
C1282       C  0.97770158  0.85888706  0.18364469     0.02570
H1283       H  0.97176246  0.88726314  0.07010983     0.15550
H1284       H  0.01828218  0.84578316  0.21571034     0.15550
C1285       C  0.96155478  0.85100437  0.22631078     0.37210
C1286       C  0.02728035  0.88116088  0.05936728     0.37110
N1287       N  0.94868746  0.84463653  0.26059064    -0.43140
N1288       N  0.03984815  0.88711697  0.02463577    -0.43140
C1289       C  0.86256365  0.86957303  0.92766979     0.00450
C1290       C  0.88051671  0.84803863  0.90834254    -0.11420
C1291       C  0.87562742  0.83753227  0.86165491     0.02690
C1292       C  0.85203532  0.84820875  0.83431980     0.00370
C1293       C  0.83458271  0.87011975  0.85373985    -0.11360
C1294       C  0.84004890  0.88122985  0.89933314     0.02570
H1295       H  0.89749811  0.83856076  0.93041671     0.15550
H1296       H  0.81699656  0.87927895  0.83267336     0.15550
C1297       C  0.82272648  0.90519093  0.91602766     0.37210
C1298       C  0.89400485  0.81479239  0.84370637     0.37110
N1299       N  0.80912827  0.92457425  0.92938454    -0.43140
N1300       N  0.90868186  0.79645542  0.82945973    -0.43140
C1301       C  0.86135162  0.99326813  0.05377540     0.00450
C1302       C  0.84736016  0.01661308  0.07693084    -0.11420
C1303       C  0.84292004  0.04355580  0.05313235     0.02690
C1304       C  0.85265373  0.04759924  0.00552597     0.00370
C1305       C  0.86729570  0.02481239  0.98312622    -0.11360
C1306       C  0.87147069  0.99800164  0.00605271     0.02570
H1307       H  0.83909750  0.01357880  0.11311759     0.15550
H1308       H  0.87420506  0.02749023  0.94600835     0.15550
C1309       C  0.88382922  0.97514961  0.97735379     0.37210
C1310       C  0.82763840  0.06637860  0.07739571     0.37110
N1311       N  0.89347566  0.95691135  0.95397723    -0.43140
N1312       N  0.81552704  0.08488987  0.09665739    -0.43140
C1313       C  0.71354848  0.88405820  0.98830526     0.00450
C1314       C  0.70868293  0.88463187  0.03815576    -0.11420
C1315       C  0.73189771  0.88307928  0.06981073     0.02690
C1316       C  0.75994879  0.88165343  0.05087004     0.00370
C1317       C  0.76473262  0.87973389  0.00132905    -0.11360
C1318       C  0.74156856  0.88066220  0.96960319     0.02570
H1319       H  0.68671340  0.88592967  0.05223042     0.15550
H1320       H  0.78659989  0.87787529  0.98745601     0.15550
C1321       C  0.74704663  0.87899622  0.91854796     0.37210
C1322       C  0.72665255  0.88231689  0.12101118     0.37110
N1323       N  0.75144008  0.87754528  0.87767713    -0.43140
N1324       N  0.72261383  0.88132110  0.16205930    -0.43140
C1325       C  0.51709819  0.09882501  0.65300795     0.00450
C1326       C  0.50569222  0.12585445  0.66627545    -0.11420
C1327       C  0.47562508  0.13095030  0.66468435     0.02690
C1328       C  0.45661150  0.10865513  0.64959666     0.00370
C1329       C  0.46809009  0.08121099  0.63920056    -0.11360
C1330       C  0.49789018  0.07612304  0.64091510     0.02570
H1331       H  0.52036813  0.14353134  0.67508387     0.15550
H1332       H  0.45368364  0.06350793  0.62936560     0.15550
C1333       C  0.50818989  0.04739251  0.62972748     0.37210
C1334       C  0.46516865  0.15959676  0.67574658     0.37110
N1335       N  0.51639612  0.02437416  0.62076597    -0.43140
N1336       N  0.45681658  0.18258756  0.68454314    -0.43140
C1337       C  0.73396798  0.10592720  0.81385073     0.00450
C1338       C  0.71804577  0.12981276  0.79672946    -0.11420
C1339       C  0.69097328  0.12619229  0.77356075     0.02690
C1340       C  0.67923694  0.09794457  0.76615593     0.00370
C1341       C  0.69440859  0.07428526  0.78599330    -0.11360
C1342       C  0.72130983  0.07791051  0.80931263     0.02570
H1343       H  0.72726841  0.15141362  0.79996182     0.15550
H1344       H  0.68608046  0.05247785  0.78075698     0.15550
C1345       C  0.73659529  0.05197446  0.82387610     0.37210
C1346       C  0.67694751  0.15190740  0.75497754     0.37110
N1347       N  0.74882319  0.03111822  0.83517718    -0.43140
N1348       N  0.66577588  0.17258128  0.74017606    -0.43140
C1349       C  0.96328960  0.09651981  0.37688063     0.00450
C1350       C  0.97632829  0.11709882  0.34595357    -0.11420
C1351       C  0.00623962  0.12333594  0.34862952     0.02690
C1352       C  0.02382112  0.10919139  0.38332430     0.00370
C1353       C  0.01095369  0.08869855  0.41407238    -0.11360
C1354       C  0.98135601  0.08190303  0.41086367     0.02570
H1355       H  0.96307477  0.12886567  0.32019166     0.15550
H1356       H  0.02437654  0.07699736  0.43973911     0.15550
C1357       C  0.97069795  0.05942110  0.44295465     0.37210
C1358       C  0.01814266  0.14489000  0.31610111     0.37110
N1359       N  0.96236032  0.04141897  0.46881733    -0.43140
N1360       N  0.02765974  0.16215694  0.28998840    -0.43140
C1361       C  0.87577270  0.11979492  0.57547506     0.00450
C1362       C  0.85538331  0.13957546  0.59362753    -0.11420
C1363       C  0.84962316  0.14121678  0.64305013     0.02690
C1364       C  0.86470927  0.12294133  0.67551565     0.00370
C1365       C  0.88668116  0.10482710  0.65726905    -0.11360
C1366       C  0.89217364  0.10301486  0.60802492     0.02570
H1367       H  0.84251085  0.15255245  0.56891827     0.15550
H1368       H  0.89930195  0.09126009  0.68143761     0.15550
C1369       C  0.91449222  0.08340899  0.59195014     0.37210
C1370       C  0.82714175  0.16073899  0.65863899     0.37110
N1371       N  0.93236031  0.06768062  0.57912474    -0.43140
N1372       N  0.80909694  0.17644381  0.67087104    -0.43140
C1373       C  0.82842212  0.93704064  0.51379941     0.00450
C1374       C  0.82668604  0.96513262  0.53272383    -0.11420
C1375       C  0.83311985  0.98971737  0.50515920     0.02690
C1376       C  0.84075322  0.98713035  0.45614612     0.00370
C1377       C  0.83974764  0.95929060  0.43533018    -0.11360
C1378       C  0.83396835  0.93420312  0.46402383     0.02570
H1379       H  0.82195881  0.96784580  0.57066311     0.15550
H1380       H  0.84474350  0.95698606  0.39749147     0.15550
C1381       C  0.83514202  0.90595966  0.44233498     0.37210
C1382       C  0.83225880  0.01751842  0.52893465     0.37110
N1383       N  0.83590106  0.88328716  0.42484451    -0.43140
N1384       N  0.83175503  0.03965963  0.54822668    -0.43140
C1385       C  0.77258957  0.07819956  0.50955517     0.00450
C1386       C  0.76953197  0.09903185  0.54584793    -0.11420
C1387       C  0.74749474  0.09653889  0.57935270     0.02690
C1388       C  0.72810953  0.07301624  0.57635785     0.00370
C1389       C  0.73396909  0.04977908  0.54596780    -0.11360
C1390       C  0.75627920  0.05212924  0.51228617     0.02570
H1391       H  0.78303430  0.11839568  0.54642446     0.15550
H1392       H  0.71917407  0.03137514  0.54473078     0.15550
C1393       C  0.76098368  0.02806282  0.48035325     0.37210
C1394       C  0.74287695  0.12015504  0.61241682     0.37110
N1395       N  0.76479614  0.00863773  0.45507155    -0.43140
N1396       N  0.73902049  0.13916954  0.63852437    -0.43140
C1397       C  0.61205455  0.84130100  0.18024396     0.00450
C1398       C  0.58547175  0.85235427  0.16256672    -0.11420
C1399       C  0.58077394  0.85649102  0.11321894     0.02690
C1400       C  0.60258799  0.84894654  0.08044081     0.00370
C1401       C  0.62790762  0.83537603  0.09736412    -0.11360
C1402       C  0.63277630  0.83129763  0.14675112     0.02570
H1403       H  0.56903695  0.85978371  0.18747756     0.15550
H1404       H  0.64480095  0.82964509  0.07198619     0.15550
C1405       C  0.66021463  0.81907311  0.16163563     0.37210
C1406       C  0.55464949  0.87094926  0.09735710     0.37110
N1407       N  0.68222421  0.80922182  0.17339195    -0.43140
N1408       N  0.53379573  0.88266504  0.08458920    -0.43140
C1409       C  0.74815872  0.86684259  0.31848150     0.00450
C1410       C  0.75855865  0.89557837  0.31440574    -0.11420
C1411       C  0.78362014  0.90243864  0.28753035     0.02690
C1412       C  0.79970187  0.88021196  0.26530079     0.00370
C1413       C  0.79064181  0.85124015  0.27285803    -0.11360
C1414       C  0.76494484  0.84449583  0.29827475     0.02570
H1415       H  0.74589485  0.91310327  0.32940015     0.15550
H1416       H  0.80244810  0.83383606  0.25575593     0.15550
C1417       C  0.75586874  0.81454985  0.30200468     0.37210
C1418       C  0.79163091  0.93259816  0.28175185     0.37110
N1419       N  0.74859943  0.79052797  0.30498772    -0.43140
N1420       N  0.79791177  0.95680012  0.27699830    -0.43140
C1421       C  0.52576495  0.88185888  0.37569523     0.00450
C1422       C  0.50920223  0.87915741  0.33352733    -0.11420
C1423       C  0.47901965  0.88305688  0.33399215     0.02690
C1424       C  0.46491652  0.89057746  0.37727975     0.00370
C1425       C  0.48178535  0.89357471  0.41935010    -0.11360
C1426       C  0.51184930  0.88907610  0.41894375     0.02570
H1427       H  0.51991404  0.87369938  0.30008071     0.15550
H1428       H  0.47143758  0.89897831  0.45310588     0.15550
C1429       C  0.52806049  0.89304327  0.46292820     0.37210
C1430       C  0.46336212  0.87947682  0.28939854     0.37110
N1431       N  0.54108974  0.89628966  0.49811012    -0.43140
N1432       N  0.45087812  0.87644358  0.25362862    -0.43140
C1433       C  0.63291812  0.93423202  0.50277285     0.00450
C1434       C  0.63741105  0.96179602  0.48187387    -0.11420
C1435       C  0.63139019  0.98731094  0.50651746     0.02690
C1436       C  0.62077527  0.98619443  0.55416850     0.00370
C1437       C  0.61667670  0.95873890  0.57604719    -0.11360
C1438       C  0.62211573  0.93282412  0.55039188     0.02570
H1439       H  0.64527833  0.96359156  0.44518568     0.15550
H1440       H  0.60892369  0.95751896  0.61279875     0.15550
C1441       C  0.61720677  0.90526417  0.57395715     0.37210
C1442       C  0.63739537  0.01455248  0.48213419     0.37110
N1443       N  0.61328728  0.88314343  0.59291447    -0.43140
N1444       N  0.64220971  0.03631063  0.46255692    -0.43140
C1445       C  0.60928301  0.11901616  0.43086511     0.00450
C1446       C  0.58752867  0.10554571  0.40344598    -0.11420
C1447       C  0.58721591  0.10810342  0.35323374     0.02690
C1448       C  0.60956655  0.12387146  0.32918535     0.00370
C1449       C  0.62912548  0.14013157  0.35691243    -0.11360
C1450       C  0.62897673  0.13817549  0.40717100     0.02570
H1451       H  0.57139103  0.09187277  0.42098180     0.15550
H1452       H  0.64568221  0.15328076  0.33935227     0.15550
C1453       C  0.64973730  0.15579841  0.43299975     0.37210
C1454       C  0.56398700  0.09366762  0.32768238     0.37110
N1455       N  0.66631894  0.17003366  0.45357148    -0.43140
N1456       N  0.54526999  0.08215236  0.30742004    -0.43140
C1457       C  0.79603695  0.10309515  0.24731640     0.00450
C1458       C  0.78762797  0.08190695  0.21399737    -0.11420
C1459       C  0.76246859  0.08530452  0.18536677     0.02690
C1460       C  0.74451468  0.11007790  0.19067118     0.00370
C1461       C  0.75407280  0.13194077  0.22214406    -0.11360
C1462       C  0.77935697  0.12868017  0.25013024     0.02570
H1463       H  0.79995258  0.06195854  0.21202017     0.15550
H1464       H  0.74082661  0.15108410  0.22703959     0.15550
C1465       C  0.78604776  0.15071858  0.28512073     0.37210
C1466       C  0.75462058  0.06191494  0.15364378     0.37110
N1467       N  0.79116137  0.16835570  0.31329885    -0.43140
N1468       N  0.74851570  0.04314995  0.12809557    -0.43140
C1469       C  0.66078916  0.95896803  0.27318602     0.00450
C1470       C  0.66354975  0.98527153  0.29716555    -0.11420
C1471       C  0.66311644  0.01094423  0.27100062     0.02690
C1472       C  0.66083072  0.00974414  0.22053813     0.00370
C1473       C  0.66182664  0.98338585  0.19636775    -0.11360
C1474       C  0.66135554  0.95768935  0.22266454     0.02570
H1475       H  0.66327558  0.98581308  0.33617543     0.15550
H1476       H  0.66013727  0.98288114  0.15746849     0.15550
C1477       C  0.65936723  0.93046423  0.19741627     0.37210
C1478       C  0.66244237  0.03811103  0.29666132     0.37110
N1479       N  0.65764282  0.90866433  0.17724852    -0.43140
N1480       N  0.66168343  0.05981432  0.31723989    -0.43140
C1481       C  0.52037865  0.08712270  0.13946720     0.00450
C1482       C  0.50505331  0.07777091  0.18082544    -0.11420
C1483       C  0.47442591  0.07630197  0.18127966     0.02690
C1484       C  0.45868761  0.08410061  0.13967904     0.00370
C1485       C  0.47425686  0.09160909  0.09769414    -0.11360
C1486       C  0.50455761  0.09328070  0.09723896     0.02570
H1487       H  0.51695119  0.07260525  0.21341661     0.15550
H1488       H  0.46258876  0.09680270  0.06483120     0.15550
C1489       C  0.51874060  0.10100152  0.05254382     0.37210
C1490       C  0.45979388  0.06826372  0.22530383     0.37110
N1491       N  0.53006113  0.10717005  0.01671022    -0.43140
N1492       N  0.44806373  0.06179964  0.26063191    -0.43140
C1493       C  0.62382005  0.04634879  0.99467915     0.00450
C1494       C  0.59958086  0.02880939  0.00550934    -0.11420
C1495       C  0.59476380  0.00233278  0.98208804     0.02690
C1496       C  0.61368965  0.99313222  0.94517239     0.00370
C1497       C  0.63659521  0.01188251  0.93137300    -0.11360
C1498       C  0.64201223  0.03805687  0.95626958     0.02570
H1499       H  0.58559640  0.03463402  0.03528296     0.15550
H1500       H  0.65160296  0.00506894  0.90368397     0.15550
C1501       C  0.66663021  0.05577357  0.94253084     0.37210
C1502       C  0.57132910  0.98393540  0.99910612     0.37110
N1503       N  0.68625561  0.07010276  0.93126720    -0.43140
N1504       N  0.55277728  0.96904893  0.01308727    -0.43140
C1505       C  0.63166352  0.20354921  0.60942162     0.00450
C1506       C  0.65843672  0.21845751  0.60798047    -0.11420
C1507       C  0.65944467  0.24886551  0.60634731     0.02690
C1508       C  0.63326865  0.26463143  0.60508336     0.00370
C1509       C  0.60668667  0.24951113  0.60256173    -0.11360
C1510       C  0.60563467  0.21932239  0.60515015     0.02570
H1511       H  0.67856950  0.20637762  0.61041796     0.15550
H1512       H  0.58643787  0.26147730  0.60111682     0.15550
C1513       C  0.57753828  0.20517063  0.60335755     0.37210
C1514       C  0.68732471  0.26322753  0.61003145     0.37110
N1515       N  0.55501667  0.19387755  0.60195688    -0.43140
N1516       N  0.70968020  0.27471682  0.61312272    -0.43140
C1517       C  0.51632702  0.37857203  0.66264594     0.00450
C1518       C  0.50405059  0.39421694  0.62452015    -0.11420
C1519       C  0.47402582  0.39823683  0.62168467     0.02690
C1520       C  0.45570945  0.38687084  0.65797370     0.00370
C1521       C  0.46797700  0.37191129  0.69708039    -0.11360
C1522       C  0.49818783  0.36770342  0.69965289     0.02570
H1523       H  0.51781530  0.40227952  0.59591401     0.15550
H1524       H  0.45392021  0.36253094  0.72443225     0.15550
C1525       C  0.51012476  0.35224484  0.74041774     0.37210
C1526       C  0.46232119  0.41291272  0.57987820     0.37110
N1527       N  0.51974808  0.33994664  0.77315074    -0.43140
N1528       N  0.45294058  0.42456018  0.54631516    -0.43140
C1529       C  0.63137011  0.70856844  0.89616216     0.00450
C1530       C  0.61111227  0.72129708  0.86476134    -0.11420
C1531       C  0.60715644  0.75137980  0.86362281     0.02690
C1532       C  0.62384927  0.76909983  0.89413766     0.00370
C1533       C  0.64399218  0.75627303  0.92579656    -0.11360
C1534       C  0.64774873  0.72615203  0.92716286     0.02570
H1535       H  0.59885175  0.70770923  0.84026113     0.15550
H1536       H  0.65681251  0.76985591  0.94950528     0.15550
C1537       C  0.66876391  0.71378550  0.95987349     0.37210
C1538       C  0.58736087  0.76362071  0.82875626     0.37110
N1539       N  0.68557054  0.70382501  0.98613905    -0.43140
N1540       N  0.57170328  0.77330196  0.80034307    -0.43140
C1541       C  0.64945892  0.50594606  0.79221426     0.00450
C1542       C  0.65479381  0.48120658  0.82025029    -0.11420
C1543       C  0.65758334  0.45446679  0.79840631     0.02690
C1544       C  0.65612443  0.45309991  0.74797894     0.00370
C1545       C  0.65385940  0.47820870  0.71990939    -0.11360
C1546       C  0.64989069  0.50468024  0.74164248     0.02570
H1547       H  0.65470145  0.48248696  0.85919258     0.15550
H1548       H  0.65259045  0.47670878  0.68101218     0.15550
C1549       C  0.64490309  0.52966168  0.71110597     0.37210
C1550       C  0.65802495  0.42877924  0.82853676     0.37110
N1551       N  0.64042249  0.54934542  0.68619198    -0.43140
N1552       N  0.65794680  0.40844247  0.85321260    -0.43140
C1553       C  0.52476600  0.59657419  0.86668504     0.00450
C1554       C  0.51078357  0.59722335  0.91131737    -0.11420
C1555       C  0.48059270  0.59481755  0.91474864     0.02690
C1556       C  0.46332970  0.59249702  0.87267379     0.00370
C1557       C  0.47715852  0.59111757  0.82792714    -0.11360
C1558       C  0.50761497  0.59317383  0.82453483     0.02570
H1559       H  0.52350365  0.59940863  0.94391197     0.15550
H1560       H  0.46414198  0.58963771  0.79550298     0.15550
C1561       C  0.52037781  0.59326451  0.77712340     0.37210
C1562       C  0.46796203  0.59438578  0.96234225     0.37110
N1563       N  0.53051183  0.59337528  0.73904664    -0.43140
N1564       N  0.45789428  0.59407347  0.00045932    -0.43140
C1565       C  0.51285710  0.38673991  0.15567476     0.00450
C1566       C  0.49785034  0.36040471  0.14863381    -0.11420
C1567       C  0.46772087  0.35946753  0.14337773     0.02690
C1568       C  0.45152325  0.38521880  0.14688613     0.00370
C1569       C  0.46626907  0.41141875  0.15679503    -0.11360
C1570       C  0.49672591  0.41244692  0.16059609     0.02570
H1571       H  0.50993681  0.34037540  0.14509953     0.15550
H1572       H  0.45402730  0.43134708  0.16009212     0.15550
C1573       C  0.51082620  0.44025134  0.16635888     0.37210
C1574       C  0.45425645  0.33166372  0.13432475     0.37110
N1575       N  0.52211961  0.46256688  0.17081899    -0.43140
N1576       N  0.44375848  0.30931454  0.12659251    -0.43140
C1577       C  0.59568255  0.34480031  0.83578542     0.00450
C1578       C  0.58375367  0.37168306  0.84794900    -0.11420
C1579       C  0.57889871  0.37898032  0.89595232     0.02690
C1580       C  0.58579313  0.35896019  0.93289977     0.00370
C1581       C  0.59504053  0.33093502  0.92020666    -0.11360
C1582       C  0.60046832  0.32392064  0.87199240     0.02570
H1583       H  0.58006208  0.38781344  0.81997841     0.15550
H1584       H  0.60053374  0.31534814  0.94814288     0.15550
C1585       C  0.61291560  0.29612442  0.86080869     0.37210
C1586       C  0.56813411  0.40763832  0.90629697     0.37110
N1587       N  0.62292503  0.27384870  0.85177278    -0.43140
N1588       N  0.55959001  0.43063467  0.91454174    -0.43140
C1589       C  0.62881010  0.54871674  0.02858983     0.00450
C1590       C  0.65229739  0.53445240  0.05089011    -0.11420
C1591       C  0.64810317  0.50892877  0.07824888     0.02690
C1592       C  0.61991604  0.49712409  0.08440163     0.00370
C1593       C  0.59620956  0.51274320  0.06591382    -0.11360
C1594       C  0.60034730  0.53826369  0.03836889     0.02570
H1595       H  0.67428613  0.54191491  0.04366263     0.15550
H1596       H  0.57454719  0.50349407  0.06909345     0.15550
C1597       C  0.57521310  0.55087603  0.01541619     0.37210
C1598       C  0.67339235  0.49351512  0.09533291     0.37110
N1599       N  0.55496167  0.56072456  0.99691060    -0.43140
N1600       N  0.69368278  0.48118245  0.10897402    -0.43140
C1601       C  0.62464882  0.27075051  0.11141533     0.00450
C1602       C  0.59950041  0.25415176  0.12100009    -0.11420
C1603       C  0.60002420  0.22384164  0.11942689     0.02690
C1604       C  0.62603386  0.20949395  0.10798724     0.00370
C1605       C  0.65101357  0.22578879  0.09736856    -0.11360
C1606       C  0.65049912  0.25616017  0.09822170     0.02570
H1607       H  0.57942535  0.26480377  0.13084964     0.15550
H1608       H  0.67113980  0.21468427  0.08922960     0.15550
C1609       C  0.67671377  0.27150821  0.08452038     0.37210
C1610       C  0.57412103  0.20785302  0.13287087     0.37110
N1611       N  0.69771686  0.28372429  0.07325678    -0.43140
N1612       N  0.55344339  0.19500835  0.14386031    -0.43140
C1613       C  0.96217724  0.38527582  0.87091708     0.00450
C1614       C  0.97383463  0.35774976  0.86140759    -0.11420
C1615       C  0.00375358  0.35249746  0.86682319     0.02690
C1616       C  0.02240210  0.37501946  0.88186893     0.00370
C1617       C  0.01090147  0.40254036  0.89040400    -0.11360
C1618       C  0.98114552  0.40777735  0.88541843     0.02570
H1619       H  0.95946782  0.34012444  0.85112849     0.15550
H1620       H  0.02538673  0.42020131  0.90018745     0.15550
C1621       C  0.97082510  0.43672867  0.89415592     0.37210
C1622       C  0.01495536  0.32408686  0.85610404     0.37110
N1623       N  0.96279030  0.46003336  0.90114698    -0.43140
N1624       N  0.02399392  0.30132432  0.84755417    -0.43140
C1625       C  0.75519215  0.39649700  0.95254943     0.00450
C1626       C  0.73160156  0.37961327  0.93769049    -0.11420
C1627       C  0.70779922  0.37610777  0.96756404     0.02690
C1628       C  0.70794458  0.38958920  0.01267580     0.00370
C1629       C  0.73145912  0.40637709  0.02784740    -0.11360
C1630       C  0.75532895  0.40996357  0.99790881     0.02570
H1631       H  0.73214078  0.36869409  0.90329134     0.15550
H1632       H  0.73106855  0.41664088  0.06281322     0.15550
C1633       C  0.78023841  0.42589799  0.01566451     0.37210
C1634       C  0.68393684  0.35791851  0.95200457     0.37110
N1635       N  0.80023062  0.43853649  0.02993232    -0.43140
N1636       N  0.66493358  0.34321942  0.93961481    -0.43140
C1637       C  0.85195667  0.27793631  0.88841529     0.00450
C1638       C  0.87754740  0.26179222  0.88352667    -0.11420
C1639       C  0.87679831  0.23135548  0.88632536     0.02690
C1640       C  0.85007786  0.21672796  0.89372771     0.00370
C1641       C  0.82457224  0.23282119  0.89838088    -0.11360
C1642       C  0.82526566  0.26311018  0.89616721     0.02570
H1643       H  0.89808346  0.27293277  0.87762439     0.15550
H1644       H  0.80390044  0.22160680  0.90245465     0.15550
C1645       C  0.79794748  0.27833730  0.89947471     0.37210
C1646       C  0.90337469  0.21551753  0.87866708     0.37110
N1647       N  0.77608385  0.29054090  0.90210085    -0.43140
N1648       N  0.92462495  0.20279670  0.87223892    -0.43140
C1649       C  0.79088613  0.37867781  0.75184176     0.00450
C1650       C  0.76557509  0.37381678  0.77879407    -0.11420
C1651       C  0.73921841  0.36594218  0.75756177     0.02690
C1652       C  0.73690798  0.36273815  0.70688594     0.00370
C1653       C  0.76239367  0.36758666  0.67928101    -0.11360
C1654       C  0.78935548  0.37506605  0.70147165     0.02570
H1655       H  0.76633889  0.37635072  0.81755395     0.15550
H1656       H  0.76132709  0.36544206  0.64055604     0.15550
C1657       C  0.81476388  0.37969071  0.67205493     0.37210
C1658       C  0.71476071  0.36236905  0.78973548     0.37110
N1659       N  0.83520904  0.38335484  0.64849374    -0.43140
N1660       N  0.69546668  0.35933794  0.81600699    -0.43140
C1661       C  0.84403078  0.26777530  0.38962919     0.00450
C1662       C  0.85929687  0.25427791  0.35230410    -0.11420
C1663       C  0.86144964  0.22397850  0.34994050     0.02690
C1664       C  0.84755416  0.20642890  0.38507200     0.00370
C1665       C  0.83242016  0.22022849  0.42266377    -0.11360
C1666       C  0.83070676  0.25054893  0.42525191     0.02570
H1667       H  0.86943432  0.26756131  0.32455312     0.15550
H1668       H  0.82182824  0.20732645  0.45039360     0.15550
C1669       C  0.81417946  0.26345459  0.46355046     0.37210
C1670       C  0.87746150  0.21173043  0.31044497     0.37110
N1671       N  0.80086262  0.27381907  0.49416450    -0.43140
N1672       N  0.89039770  0.20201172  0.27880236    -0.43140
C1673       C  0.84988353  0.36656212  0.17920015     0.00450
C1674       C  0.87700876  0.37261644  0.15789491    -0.11420
C1675       C  0.87981396  0.37608197  0.10794257     0.02690
C1676       C  0.85489957  0.37405970  0.07817589     0.00370
C1677       C  0.82802971  0.36682599  0.09954008    -0.11360
C1678       C  0.82536109  0.36301370  0.14928932     0.02570
H1679       H  0.89609706  0.37496025  0.18049144     0.15550
H1680       H  0.80867420  0.36498715  0.07753207     0.15550
C1681       C  0.79673295  0.35727440  0.16857736     0.37210
C1682       C  0.90857620  0.38113058  0.08862030     0.37110
N1683       N  0.77376174  0.35268957  0.18391405    -0.43140
N1684       N  0.93169469  0.38498159  0.07335155    -0.43140
C1685       C  0.72631957  0.37950517  0.32612464     0.00450
C1686       C  0.71053484  0.35462311  0.31318871    -0.11420
C1687       C  0.68512995  0.35657226  0.28519575     0.02690
C1688       C  0.67509664  0.38382791  0.26822979     0.00370
C1689       C  0.68924736  0.40891911  0.28483351    -0.11360
C1690       C  0.71456478  0.40700503  0.31355262     0.02570
H1691       H  0.71890603  0.33341341  0.32289571     0.15550
H1692       H  0.68216751  0.42996522  0.27178380     0.15550
C1693       C  0.72979477  0.43356249  0.32481942     0.37210
C1694       C  0.67050206  0.32999509  0.27199443     0.37110
N1695       N  0.74208417  0.45486064  0.33352062    -0.43140
N1696       N  0.65871716  0.30873146  0.26145072    -0.43140
C1697       C  0.01448610  0.37998744  0.37130790     0.00450
C1698       C  0.99965163  0.35478739  0.38722119    -0.11420
C1699       C  0.96928454  0.35321845  0.38819566     0.02690
C1700       C  0.95278985  0.37710622  0.37240577     0.00370
C1701       C  0.96750961  0.40193746  0.35469860    -0.11360
C1702       C  0.99801117  0.40363680  0.35425609     0.02570
H1703       H  0.01188470  0.33615797  0.39983927     0.15550
H1704       H  0.95511309  0.42048409  0.34221493     0.15550
C1705       C  0.01161194  0.43036561  0.33852120     0.37210
C1706       C  0.95577027  0.32656395  0.40457539     0.37110
N1707       N  0.02246725  0.45183711  0.32597667    -0.43140
N1708       N  0.94499307  0.30517353  0.41767712    -0.43140
C1709       C  0.83918500  0.71374244  0.10173871     0.00450
C1710       C  0.86608024  0.72483743  0.08589063    -0.11420
C1711       C  0.87230855  0.75456390  0.08856495     0.02690
C1712       C  0.85180239  0.77330566  0.10901628     0.00370
C1713       C  0.82456669  0.76243935  0.12310784    -0.11360
C1714       C  0.81807096  0.73289482  0.11933923     0.02570
H1715       H  0.88266798  0.71006839  0.07335961     0.15550
H1716       H  0.80831850  0.77712799  0.13706597     0.15550
C1717       C  0.79002839  0.72258562  0.13539047     0.37210
C1718       C  0.89998196  0.76527017  0.07131793     0.37110
N1719       N  0.76736413  0.71456081  0.14783696    -0.43140
N1720       N  0.92212722  0.77388745  0.05735728    -0.43140
C1721       C  0.83700882  0.51619509  0.22560703     0.00450
C1722       C  0.81568610  0.49466360  0.22190188    -0.11420
C1723       C  0.81311808  0.47359206  0.25748051     0.02690
C1724       C  0.83137977  0.47501751  0.29812931     0.00370
C1725       C  0.85177955  0.49731132  0.30292714    -0.11360
C1726       C  0.85497020  0.51787713  0.26668993     0.02570
H1727       H  0.80185654  0.49370565  0.19030860     0.15550
H1728       H  0.86622361  0.49767464  0.33380756     0.15550
C1729       C  0.87664616  0.54037955  0.27288958     0.37210
C1730       C  0.79416751  0.44906255  0.24862704     0.37110
N1731       N  0.89405875  0.55830631  0.27809092    -0.43140
N1732       N  0.77935486  0.42926482  0.24089065    -0.43140
C1733       C  0.95204982  0.60954398  0.16225226     0.00450
C1734       C  0.96970735  0.63433310  0.15758481    -0.11420
C1735       C  0.00012469  0.63182906  0.15715801     0.02690
C1736       C  0.01303299  0.60422258  0.16200879     0.00370
C1737       C  0.99546642  0.57980576  0.16952727    -0.11360
C1738       C  0.96525688  0.58223261  0.17029155     0.02570
H1739       H  0.95978383  0.65537032  0.15186104     0.15550
H1740       H  0.00541092  0.55862303  0.17352809     0.15550
C1741       C  0.94838374  0.55624819  0.17964978     0.37210
C1742       C  0.01755451  0.65743081  0.14790193     0.37110
N1743       N  0.93496492  0.53540062  0.18725696    -0.43140
N1744       N  0.03159250  0.67786777  0.14025685    -0.43140
C1745       C  0.85010424  0.50186197  0.93608722     0.00450
C1746       C  0.82169073  0.50982923  0.94965843    -0.11420
C1747       C  0.81650993  0.53494403  0.97704359     0.02690
C1748       C  0.83992846  0.55312576  0.99028099     0.00370
C1749       C  0.86783487  0.54648650  0.97263290    -0.11360
C1750       C  0.87309656  0.52109888  0.94647760     0.02570
H1751       H  0.80375729  0.49513907  0.94229117     0.15550
H1752       H  0.88614145  0.56010132  0.98266941     0.15550
C1753       C  0.90246502  0.51499428  0.93189264     0.37210
C1754       C  0.78767137  0.53968858  0.99573272     0.37110
N1755       N  0.92615029  0.51063074  0.92018757    -0.43140
N1756       N  0.76459344  0.54340396  0.01098416    -0.43140
C1757       C  0.96008993  0.59298055  0.63872611     0.00450
C1758       C  0.97463143  0.59063524  0.68290739    -0.11420
C1759       C  0.00509890  0.59311688  0.68535331     0.02690
C1760       C  0.02158681  0.59793385  0.64286348     0.00370
C1761       C  0.00696777  0.60022541  0.59888503    -0.11360
C1762       C  0.97674511  0.59749060  0.59631326     0.02570
H1763       H  0.96216971  0.58748983  0.71563859     0.15550
H1764       H  0.01930511  0.60314833  0.56594582     0.15550
C1765       C  0.96365064  0.59813419  0.54903449     0.37210
C1766       C  0.01870823  0.59153604  0.73211051     0.37110
N1767       N  0.95323762  0.59861421  0.51113931    -0.43140
N1768       N  0.02958571  0.59032902  0.76961002    -0.43140
C1769       C  0.85010560  0.61212112  0.33111868     0.00450
C1770       C  0.83973478  0.58647357  0.35308004    -0.11420
C1771       C  0.84275488  0.58142788  0.40210651     0.02690
C1772       C  0.85578792  0.60273259  0.43143783     0.00370
C1773       C  0.86711710  0.62804321  0.40972928    -0.11360
C1774       C  0.86459050  0.63283647  0.35995908     0.02570
H1775       H  0.82923962  0.56978201  0.33186647     0.15550
H1776       H  0.87749895  0.64440726  0.43176674     0.15550
C1777       C  0.87703208  0.65910691  0.34001058     0.37210
C1778       C  0.83287082  0.55364546  0.42057629     0.37110
N1779       N  0.88718061  0.68014932  0.32422128    -0.43140
N1780       N  0.82501728  0.53133610  0.43507342    -0.43140
C1781       C  0.85441365  0.47786205  0.58702129     0.00450
C1782       C  0.87834795  0.46486735  0.56447452    -0.11420
C1783       C  0.87483489  0.44005322  0.53534989     0.02690
C1784       C  0.84681582  0.42782465  0.52777627     0.00370
C1785       C  0.82337952  0.43952707  0.55340724    -0.11360
C1786       C  0.82696319  0.46404395  0.58275556     0.02570
H1787       H  0.89935614  0.47562285  0.56595263     0.15550
H1788       H  0.80174173  0.43066177  0.54797116     0.15550
C1789       C  0.80145005  0.47640569  0.60463925     0.37210
C1790       C  0.89975920  0.42980173  0.50904860     0.37110
N1791       N  0.78101578  0.48637679  0.62209467    -0.43140
N1792       N  0.91970324  0.42164999  0.48780793    -0.43140
C1793       C  0.83238249  0.76553794  0.61108549     0.00450
C1794       C  0.81994716  0.74868929  0.64781860    -0.11420
C1795       C  0.82477770  0.71882409  0.65098148     0.02690
C1796       C  0.84246772  0.70489404  0.61640474     0.00370
C1797       C  0.85430492  0.72183699  0.57869239    -0.11360
C1798       C  0.84951828  0.75192737  0.57602244     0.02570
H1799       H  0.80768500  0.75929023  0.67594464     0.15550
H1800       H  0.86745836  0.71164707  0.55133563     0.15550
C1801       C  0.86327877  0.76863466  0.53820006     0.37210
C1802       C  0.81226595  0.70362248  0.69168094     0.37110
N1803       N  0.87424401  0.78207463  0.50784600    -0.43140
N1804       N  0.80207240  0.69166672  0.72436201    -0.43140
C1805       C  0.80333367  0.58369103  0.78025297     0.00450
C1806       C  0.78373243  0.56060220  0.78671404    -0.11420
C1807       C  0.75794322  0.56412779  0.81327883     0.02690
C1808       C  0.75126332  0.59132340  0.83416491     0.00370
C1809       C  0.77221630  0.61351557  0.83142770    -0.11360
C1810       C  0.79818204  0.60971376  0.80546951     0.02570
H1811       H  0.78691531  0.54080980  0.76659332     0.15550
H1812       H  0.76766875  0.63434887  0.84751417     0.15550
C1813       C  0.81850905  0.63360999  0.80217966     0.37210
C1814       C  0.73711935  0.54056049  0.81300288     0.37110
N1815       N  0.83501545  0.65260401  0.79982232    -0.43140
N1816       N  0.72057737  0.52156358  0.81227187    -0.43140
C1817       C  0.51837793  0.59828036  0.38284317     0.00450
C1818       C  0.50232080  0.59188057  0.42499406    -0.11420
C1819       C  0.47209446  0.59547792  0.42690346     0.02690
C1820       C  0.45704725  0.60550232  0.38608691     0.00370
C1821       C  0.47274588  0.61195385  0.34399188    -0.11360
C1822       C  0.50306852  0.60880528  0.34209052     0.02570
H1823       H  0.51332551  0.58397429  0.45695308     0.15550
H1824       H  0.46115696  0.61935770  0.31222337     0.15550
C1825       C  0.51751590  0.61633653  0.29761100     0.37210
C1826       C  0.45680864  0.58719750  0.47027935     0.37110
N1827       N  0.52896689  0.62252757  0.26189957    -0.43140
N1828       N  0.44448079  0.58044379  0.50490103    -0.43140
C1829       C  0.63444478  0.60849913  0.58081317     0.00450
C1830       C  0.61053252  0.62181088  0.60279764    -0.11420
C1831       C  0.61112486  0.62880792  0.65179305     0.02690
C1832       C  0.63626888  0.62316560  0.67945478     0.00370
C1833       C  0.66067628  0.61127710  0.65685437    -0.11360
C1834       C  0.65962160  0.60308117  0.60847505     0.02570
H1835       H  0.59118975  0.62641911  0.58180967     0.15550
H1836       H  0.67956266  0.60555623  0.67826609     0.15550
C1837       C  0.68288426  0.58545815  0.59020382     0.37210
C1838       C  0.58558039  0.64147229  0.67306933     0.37110
N1839       N  0.70100123  0.57042975  0.57618351    -0.43140
N1840       N  0.56511666  0.65166849  0.69007146    -0.43140
C1841       C  0.62783645  0.43066635  0.51315323     0.00450
C1842       C  0.65209106  0.43869981  0.48506160    -0.11420
C1843       C  0.65131472  0.46343075  0.45437535     0.02690
C1844       C  0.62588379  0.48073022  0.45125791     0.00370
C1845       C  0.60108025  0.47101824  0.47583218    -0.11360
C1846       C  0.60171757  0.44657692  0.50606866     0.02570
H1847       H  0.67229423  0.42696986  0.48955951     0.15550
H1848       H  0.58120274  0.48352746  0.47329404     0.15550
C1849       C  0.57515916  0.43953287  0.53122612     0.37210
C1850       C  0.67763257  0.47183754  0.42972128     0.37110
N1851       N  0.55373770  0.43456953  0.55146265    -0.43140
N1852       N  0.69874697  0.47861708  0.40993698    -0.43140
C1853       C  0.76054324  0.58988629  0.53227191     0.00450
C1854       C  0.76251156  0.56716767  0.49894452    -0.11420
C1855       C  0.74606311  0.56747786  0.45701763     0.02690
C1856       C  0.72717929  0.59074803  0.44822949     0.00370
C1857       C  0.72655161  0.61430555  0.47995109    -0.11360
C1858       C  0.74281654  0.61398945  0.52199873     0.02570
H1859       H  0.77713421  0.54915244  0.50532063     0.15550
H1860       H  0.71170272  0.63216751  0.47379568     0.15550
C1861       C  0.73922567  0.63769184  0.55514712     0.37210
C1862       C  0.74904488  0.54386743  0.42358741     0.37110
N1863       N  0.73617902  0.65663631  0.58168750    -0.43140
N1864       N  0.75160493  0.52504139  0.39668285    -0.43140
C1865       C  0.62668785  0.70210293  0.40528025     0.00450
C1866       C  0.60561157  0.71789693  0.37972179    -0.11420
C1867       C  0.60584373  0.74825637  0.37973532     0.02690
C1868       C  0.62732238  0.76338551  0.40580750     0.00370
C1869       C  0.64752366  0.74797816  0.43315596    -0.11360
C1870       C  0.64743501  0.71761745  0.43337685     0.02570
H1871       H  0.58938143  0.70658378  0.35855824     0.15550
H1872       H  0.66433376  0.75970927  0.45244502     0.15550
C1873       C  0.67010419  0.70344215  0.46069368     0.37210
C1874       C  0.58460229  0.76355046  0.35097022     0.37110
N1875       N  0.68833596  0.69225599  0.48263550    -0.43140
N1876       N  0.56762596  0.77586909  0.32796028    -0.43140
C1877       C  0.72613352  0.61046046  0.17732949     0.00450
C1878       C  0.71093258  0.58393813  0.17338697    -0.11420
C1879       C  0.68643088  0.57763755  0.20240165     0.02690
C1880       C  0.67585988  0.59845804  0.23495981     0.00370
C1881       C  0.68940524  0.62589171  0.23546306    -0.11360
C1882       C  0.71471841  0.63163499  0.20848019     0.02570
H1883       H  0.71989741  0.56698075  0.15112449     0.15550
H1884       H  0.68215262  0.64188749  0.26115042     0.15550
C1885       C  0.73064798  0.65796329  0.21841595     0.37210
C1886       C  0.67349189  0.54909911  0.20027007     0.37110
N1887       N  0.74340216  0.67888673  0.22765545    -0.43140
N1888       N  0.66303386  0.52623200  0.19892084    -0.43140
loop_ 
_geom_bond_atom_site_label_1 
_geom_bond_atom_site_label_2 
_geom_bond_distance 
_geom_bond_site_symmetry_2 
_ccdc_geom_bond_type 
Zn1           O5   1.895       .  S
Zn1           O6   2.049       .  S
Zn1          O10   2.014       .  S
Zn1          O17   2.049       .  S
Zn2           O5   1.960       .  S
Zn2           O7   2.048       .  S
Zn2           O9   2.065       .  S
Zn2          O13   1.995       .  S
Zn3           O5   1.931       .  S
Zn3           O8   2.058       .  S
Zn3          O11   2.079       .  S
Zn3          O14   2.059       .  S
Zn4           O5   1.900       .  S
Zn4          O12   1.948       .  S
Zn4          O15   1.956       .  S
Zn4          O16   2.004       .  S
O6           C18   1.281       .  A
O7           C19   1.282       .  A
O8           C20   1.285       .  A
O9           C18   1.281       .  A
O10          C20   1.280       .  A
O11          C19   1.285       .  A
O12          C21   1.261       .  A
O13          C22   1.269       .  A
O14          C21   1.276       .  A
O15          C22   1.260       .  A
O16          C23   1.273       .  A
O17          C23   1.277       .  A
C18        C1844   1.505       .  S
C19        C1880   1.500       .  S
C20        C1817   1.499       .  S
C21        C1865   1.490       .  S
C22        C1856   1.457       .  S
C23        C1829   1.484       .  S
Zn24         O28   1.938       .  S
Zn24         O29   1.969       .  S
Zn24         O33   2.055       .  S
Zn24         O40   2.024       .  S
Zn25         O28   1.964       .  S
Zn25         O30   2.144       .  S
Zn25         O32   2.106       .  S
Zn25         O36   2.151       .  S
Zn26         O28   1.924       .  S
Zn26         O31   1.975       .  S
Zn26         O34   1.950       .  S
Zn26         O37   1.972       .  S
Zn27         O28   1.903       .  S
Zn27         O35   1.950       .  S
Zn27         O38   1.955       .  S
Zn27         O39   1.970       .  S
O29          C41   1.275       .  A
O30          C42   1.292       .  A
O31          C43   1.266       .  A
O32          C41   1.291       .  A
O33          C43   1.275       .  A
O34          C42   1.269       .  A
O35          C44   1.261       .  A
O36          C45   1.286       .  A
O37          C44   1.264       .  A
O38          C45   1.263       .  A
O39          C46   1.269       .  A
O40          C46   1.273       .  A
C41        C1757   1.487       .  S
C42        C1805   1.487       .  S
C43        C1796   1.494       .  S
C44        C1853   1.461       .  S
C45        C1781   1.497       .  S
C46        C1772   1.480       .  S
Zn47         O51   1.950       .  S
Zn47         O52   2.150       .  S
Zn47         O56   2.147       .  S
Zn47         O63   2.091       .  S
Zn48         O51   1.875       .  S
Zn48         O53   1.945       .  S
Zn48         O55   1.951       .  S
Zn48         O59   1.955       .  S
Zn49         O51   1.910       .  S
Zn49         O54   1.944       .  S
Zn49         O57   1.957       .  S
Zn49         O60   1.965       .  S
Zn50         O51   1.930       .  S
Zn50         O58   2.043       .  S
Zn50         O61   2.039       .  S
Zn50         O62   1.962       .  S
O52          C64   1.286       .  A
O53          C65   1.261       .  A
O54          C66   1.268       .  A
O55          C64   1.262       .  A
O56          C66   1.292       .  A
O57          C65   1.264       .  A
O58          C67   1.272       .  A
O59          C68   1.269       .  A
O60          C67   1.266       .  A
O61          C68   1.275       .  A
O62          C69   1.275       .  A
O63          C69   1.290       .  A
C64        C1877   1.494       .  S
C65        C1721   1.441       .  S
C66        C1748   1.494   1_554  S
C67        C1733   1.478       .  S
C68        C1769   1.487       .  S
C69        C1709   1.465       .  S
Zn70         O74   1.958       .  S
Zn70         O75   2.064       .  S
Zn70         O79   2.072       .  S
Zn70         O86   2.096       .  S
Zn71         O74   1.938       .  S
Zn71         O76   1.987       .  S
Zn71         O78   1.958       .  S
Zn71         O82   1.929       .  S
Zn72         O74   1.941       .  S
Zn72         O77   2.000       .  S
Zn72         O80   2.036       .  S
Zn72         O83   2.054       .  S
Zn73         O74   1.955       .  S
Zn73         O81   2.048       .  S
Zn73         O84   1.963       .  S
Zn73         O85   2.034       .  S
O75          C87   1.276       .  A
O76          C88   1.268       .  A
O77          C89   1.277       .  A
O78          C87   1.262       .  A
O79          C89   1.286       .  A
O80          C88   1.274       .  A
O81          C90   1.277       .  A
O82          C91   1.263       .  A
O83          C90   1.278       .  A
O84          C91   1.265       .  A
O85          C92   1.279       .  A
O86          C92   1.285       .  A
C87        C1700   1.486       .  S
C88        C1673   1.483       .  S
C89        C1661   1.476       .  S
C90        C1685   1.502       .  S
C91        C1724   1.435       .  S
C92        C1784   1.504       .  S
Zn93         O97   1.910       .  S
Zn93         O98   1.937       .  S
Zn93        O102   1.988   1_556  S
Zn93        O109   1.956       .  S
Zn94         O97   1.926       .  S
Zn94         O99   2.018       .  S
Zn94        O101   1.958       .  S
Zn94        O105   1.996       .  S
Zn95         O97   1.911       .  S
Zn95        O100   2.052   1_556  S
Zn95        O103   2.081       .  S
Zn95        O106   2.007       .  S
Zn96         O97   1.946       .  S
Zn96        O104   2.070       .  S
Zn96        O107   2.123       .  S
Zn96        O108   2.066       .  S
O98         C110   1.261       .  A
O99         C111   1.274       .  A
O100        C112   1.278       .  A
O101        C110   1.263       .  A
O102        C112   1.271       .  A
O103        C111   1.281       .  A
O104        C113   1.289       .  A
O105        C114   1.276       .  A
O106        C113   1.281       .  A
O107        C114   1.288       .  A
O108        C115   1.275       .  A
O109        C115   1.263       .  A
C110       C1625   1.435       .  S
C111       C1745   1.496       .  S
C112       C1676   1.491       .  S
C113       C1613   1.482       .  S
C114       C1649   1.500       .  S
C115       C1637   1.481       .  S
Zn116       O120   1.926       .  S
Zn116       O121   1.975       .  S
Zn116       O125   1.957       .  S
Zn116       O132   2.017       .  S
Zn117       O120   1.976       .  S
Zn117       O122   2.118       .  S
Zn117       O124   2.137       .  S
Zn117       O128   2.099       .  S
Zn118       O120   1.932       .  S
Zn118       O123   1.929       .  S
Zn118       O126   1.977       .  S
Zn118       O129   1.997   1_554  S
Zn119       O120   1.922       .  S
Zn119       O127   2.023       .  S
Zn119       O130   1.934       .  S
Zn119       O131   1.993       .  S
O121        C133   1.270       .  A
O122        C134   1.284       .  A
O123        C135   1.263       .  A
O124        C133   1.289       .  A
O125        C135   1.267       .  A
O126        C134   1.267       .  A
O127        C136   1.269   1_554  A
O128        C137   1.289       .  A
O129        C136   1.268       .  A
O130        C137   1.271       .  A
O131        C138   1.269       .  A
O132        C138   1.270       .  A
C133       C1688   1.499       .  S
C134       C1592   1.490       .  S
C135       C1628   1.428       .  S
C136       C1580   1.484       .  S
C137       C1565   1.481       .  S
C138       C1601   1.488       .  S
Zn139       O143   1.947       .  S
Zn139       O144   2.023       .  S
Zn139       O148   1.933       .  S
Zn139       O155   2.007       .  S
Zn140       O143   1.953       .  S
Zn140       O145   2.052       .  S
Zn140       O147   2.064       .  S
Zn140       O151   2.013       .  S
Zn141       O143   1.947       .  S
Zn141       O146   1.930       .  S
Zn141       O149   1.978       .  S
Zn141       O152   1.973       .  S
Zn142       O143   1.954       .  S
Zn142       O150   2.055       .  S
Zn142       O153   2.041       .  S
Zn142       O154   2.090       .  S
O144        C156   1.272       .  A
O145        C157   1.274       .  A
O146        C158   1.265       .  A
O147        C156   1.278       .  A
O148        C158   1.264       .  A
O149        C157   1.265       .  A
O150        C159   1.276       .  A
O151        C160   1.280       .  A
O152        C159   1.264       .  A
O153        C160   1.283       .  A
O154        C161   1.283       .  A
O155        C161   1.273       .  A
C156       C1808   1.497       .  S
C157       C1832   1.479       .  S
C158       C1541   1.438       .  S
C159       C1553   1.488       .  S
C160       C1529   1.466       .  S
C161       C1589   1.501   1_556  S
Zn162       O166   1.963       .  S
Zn162       O167   2.149       .  S
Zn162       O171   2.149       .  S
Zn162       O178   2.088       .  S
Zn163       O166   1.908       .  S
Zn163       O168   1.945       .  S
Zn163       O170   1.984       .  S
Zn163       O174   1.977       .  S
Zn164       O166   1.872       .  S
Zn164       O169   1.967       .  S
Zn164       O172   1.930       .  S
Zn164       O175   2.013       .  S
Zn165       O166   1.910       .  S
Zn165       O173   2.014       .  S
Zn165       O176   2.039       .  S
Zn165       O177   1.956       .  S
O167        C179   1.284       .  A
O168        C180   1.266       .  A
O169        C181   1.269       .  A
O170        C179   1.268       .  A
O171        C181   1.290       .  A
O172        C180   1.269       .  A
O173        C182   1.273       .  A
O174        C183   1.265       .  A
O175        C182   1.271       .  A
O176        C183   1.271       .  A
O177        C184   1.277       .  A
O178        C184   1.291       .  A
C179       C1652   1.514       .  S
C180       C1544   1.431       .  S
C181       C1841   1.510       .  S
C182       C1517   1.473       .  S
C183       C1577   1.470       .  S
C184       C1508   1.474       .  S
Zn185       O189   1.934       .  S
Zn185       O190   1.990       .  S
Zn185       O194   2.043       .  S
Zn185       O201   2.047       .  S
Zn186       O189   1.927       .  S
Zn186       O191   2.070       .  S
Zn186       O193   2.050       .  S
Zn186       O197   2.043       .  S
Zn187       O189   1.965       .  S
Zn187       O192   2.057       .  S
Zn187       O195   2.046       .  S
Zn187       O198   1.961       .  S
Zn188       O189   1.928       .  S
Zn188       O196   1.926       .  S
Zn188       O199   1.996       .  S
Zn188       O200   1.969       .  S
O190        C202   1.275       .  A
O191        C203   1.281       .  A
O192        C204   1.280       .  A
O193        C202   1.283       .  A
O194        C204   1.277       .  A
O195        C203   1.278       .  A
O196        C205   1.266       .  A
O197        C206   1.277       .  A
O198        C205   1.265       .  A
O199        C206   1.268       .  A
O200        C207   1.265       .  A
O201        C207   1.276       .  A
C202       C1604   1.468       .  S
C203       C1493   1.497   1_554  S
C204       C1460   1.508       .  S
C205       C1472   1.433       .  S
C206       C1481   1.488       .  S
C207       C1448   1.490       .  S
Zn208       O212   1.938       .  S
Zn208       O213   1.998       .  S
Zn208       O217   2.071       .  S
Zn208       O224   2.060       .  S
Zn209       O212   1.955       .  S
Zn209       O214   2.098       .  S
Zn209       O216   2.049       .  S
Zn209       O220   2.040       .  S
Zn210       O212   1.931       .  S
Zn210       O215   2.012       .  S
Zn210       O218   1.986       .  S
Zn210       O221   1.942       .  S
Zn211       O212   1.923       .  S
Zn211       O219   1.940       .  S
Zn211       O222   1.975       .  S
Zn211       O223   1.964       .  S
O213        C225   1.278       .  A
O214        C226   1.282       .  A
O215        C227   1.274       .  A
O216        C225   1.284       .  A
O217        C227   1.280       .  A
O218        C226   1.273       .  A
O219        C228   1.266       .  A
O220        C229   1.275       .  A
O221        C228   1.262       .  A
O222        C229   1.267       .  A
O223        C230   1.265       .  A
O224        C230   1.276       .  A
C225       C1868   1.465       .  S
C226       C1433   1.501       .  S
C227       C1409   1.497       .  S
C228       C1469   1.433       .  S
C229       C1421   1.474       .  S
C230       C1397   1.492       .  S
Zn231       O235   1.922       .  S
Zn231       O236   2.076       .  S
Zn231       O240   2.105       .  S
Zn231       O247   2.090       .  S
Zn232       O235   1.907       .  S
Zn232       O237   1.909       .  S
Zn232       O239   1.965       .  S
Zn232       O243   1.980       .  S
Zn233       O235   1.941       .  S
Zn233       O238   2.019       .  S
Zn233       O241   1.990       .  S
Zn233       O244   2.058       .  S
Zn234       O235   1.896       .  S
Zn234       O242   2.028       .  S
Zn234       O245   2.023       .  S
Zn234       O246   1.973       .  S
O236        C248   1.278       .  A
O237        C249   1.264       .  A
O238        C250   1.279       .  A
O239        C248   1.267       .  A
O240        C250   1.289       .  A
O241        C249   1.270       .  A
O242        C251   1.276       .  A
O243        C252   1.266       .  A
O244        C251   1.277       .  A
O245        C252   1.272       .  A
O246        C253   1.274       .  A
O247        C253   1.290       .  A
C248       C1664   1.494       .  S
C249       C1385   1.464       .  S
C250       C1457   1.493       .  S
C251       C1376   1.497   1_545  S
C252       C1361   1.480       .  S
C253       C1349   1.498       .  S
Zn254       O258   1.920       .  S
Zn254       O259   2.049       .  S
Zn254       O263   2.029       .  S
Zn254       O270   2.024       .  S
Zn255       O258   1.965       .  S
Zn255       O260   2.059       .  S
Zn255       O262   2.036       .  S
Zn255       O266   1.978       .  S
Zn256       O258   1.908       .  S
Zn256       O261   1.997       .  S
Zn256       O264   2.035       .  S
Zn256       O267   2.046       .  S
Zn257       O258   1.912       .  S
Zn257       O265   1.978       .  S
Zn257       O268   1.917       .  S
Zn257       O269   1.977       .  S
O259        C271   1.279       .  A
O260        C272   1.279       .  A
O261        C273   1.277       .  A
O262        C271   1.280       .  A
O263        C273   1.280       .  A
O264        C272   1.278       .  A
O265        C274   1.267       .  A
O266        C275   1.266       .  A
O267        C274   1.276       .  A
O268        C275   1.265       .  A
O269        C276   1.265       .  A
O270        C276   1.273       .  A
C271       C1340   1.507       .  S
C272       C1436   1.495   1_545  S
C273       C1325   1.474       .  S
C274       C1445   1.491       .  S
C275       C1388   1.441       .  S
C276       C1505   1.473       .  S
Zn277       O281   1.934       .  S
Zn277       O282   1.974       .  S
Zn277       O286   2.062       .  S
Zn277       O293   2.032       .  S
Zn278       O281   1.881       .  S
Zn278       O283   1.959       .  S
Zn278       O285   1.932       .  S
Zn278       O289   1.951       .  S
Zn279       O281   1.894       .  S
Zn279       O284   2.046       .  S
Zn279       O287   2.063       .  S
Zn279       O290   1.978       .  S
Zn280       O281   1.929       .  S
Zn280       O288   2.050       .  S
Zn280       O291   2.051       .  S
Zn280       O292   2.063       .  S
O282        C294   1.268       .  A
O283        C295   1.265   1_554  A
O284        C296   1.279       .  A
O285        C294   1.260       .  A
O286        C296   1.280       .  A
O287        C295   1.275   1_554  A
O288        C297   1.284       .  A
O289        C298   1.260       .  A
O290        C297   1.278       .  A
O291        C298   1.273       .  A
O292        C299   1.283       .  A
O293        C299   1.280       .  A
C294       C1316   1.428       .  S
C295       C1289   1.472       .  S
C296       C1301   1.509       .  S
C297       C1277   1.488       .  S
C298       C1712   1.464       .  S
C299       C1412   1.498       .  S
Zn300       O304   1.921       .  S
Zn300       O305   1.993       .  S
Zn300       O309   1.954       .  S
Zn300       O316   1.980       .  S
Zn301       O304   1.941       .  S
Zn301       O306   2.045       .  S
Zn301       O308   2.023       .  S
Zn301       O312   1.955       .  S
Zn302       O304   1.912       .  S
Zn302       O307   1.923       .  S
Zn302       O310   1.977   1_556  S
Zn302       O313   1.976       .  S
Zn303       O304   1.970       .  S
Zn303       O311   2.134       .  S
Zn303       O314   2.099       .  S
Zn303       O315   2.143       .  S
O305        C317   1.268       .  A
O306        C318   1.272   1_556  A
O307        C319   1.263       .  A
O308        C317   1.271       .  A
O309        C319   1.266       .  A
O310        C318   1.265       .  A
O311        C320   1.285       .  A
O312        C321   1.273       .  A
O313        C320   1.268       .  A
O314        C321   1.289       .  A
O315        C322   1.291       .  A
O316        C322   1.271       .  A
C317       C1532   1.472       .  S
C318       C1400   1.472       .  S
C319       C1313   1.434       .  S
C320       C1496   1.499       .  S
C321       C1256   1.478       .  S
C322       C1265   1.498       .  S
Zn323       O327   1.949       .  S
Zn323       O328   2.058       .  S
Zn323       O332   2.063       .  S
Zn323       O339   2.090       .  S
Zn324       O327   1.934       .  S
Zn324       O329   2.061       .  S
Zn324       O331   2.005       .  S
Zn324       O335   2.083       .  S
Zn325       O327   1.903       .  S
Zn325       O330   1.951       .  S
Zn325       O333   1.958       .  S
Zn325       O336   1.915       .  S
Zn326       O327   1.932       .  S
Zn326       O334   1.967       .  S
Zn326       O337   2.016       .  S
Zn326       O338   1.997       .  S
O328        C340   1.286       .  A
O329        C341   1.278       .  A
O330        C342   1.260       .  A
O331        C340   1.279       .  A
O332        C342   1.276       .  A
O333        C341   1.268       .  A
O334        C343   1.268       .  A
O335        C344   1.281       .  A
O336        C343   1.258       .  A
O337        C344   1.274       .  A
O338        C345   1.273       .  A
O339        C345   1.283       .  A
C340       C1640   1.471       .  S
C341       C1364   1.491       .  S
C342       C1241   1.490       .  S
C343       C1232   1.448       .  S
C344       C1337   1.504       .  S
C345       C1304   1.489   1_556  S
Zn346       O350   1.972       .  S
Zn346       O351   2.109       .  S
Zn346       O355   2.152       .  S
Zn346       O362   2.147       .  S
Zn347       O350   1.937       .  S
Zn347       O352   2.015       .  S
Zn347       O354   1.967       .  S
Zn347       O358   2.032       .  S
Zn348       O350   1.898       .  S
Zn348       O353   1.941       .  S
Zn348       O356   1.996       .  S
Zn348       O359   1.936       .  S
Zn349       O350   1.932       .  S
Zn349       O357   1.931       .  S
Zn349       O360   1.977       .  S
Zn349       O361   1.955       .  S
O351        C363   1.293       .  A
O352        C364   1.271       .  A
O353        C365   1.268       .  A
O354        C363   1.276       .  A
O355        C365   1.289       .  A
O356        C364   1.267       .  A
O357        C366   1.261       .  A
O358        C367   1.268       .  A
O359        C366   1.267       .  A
O360        C367   1.266       .  A
O361        C368   1.264       .  A
O362        C368   1.287       .  A
C363       C1793   1.471       .  S
C364       C1217   1.475       .  S
C365       C1373   1.497       .  S
C366       C1229   1.447       .  S
C367       C1292   1.480       .  S
C368       C1268   1.497       .  S
Zn369       O373   1.949       .  S
Zn369       O374   2.107       .  S
Zn369       O378   2.087       .  S
Zn369       O385   2.115       .  S
Zn370       O373   1.953       .  S
Zn370       O375   1.965       .  S
Zn370       O377   1.978       .  S
Zn370       O381   1.973       .  S
Zn371       O373   1.929       .  S
Zn371       O376   1.958       .  S
Zn371       O379   2.027       .  S
Zn371       O382   2.026       .  S
Zn372       O373   1.877       .  S
Zn372       O380   1.978       .  S
Zn372       O383   1.926       .  S
Zn372       O384   2.001       .  S
O374        C386   1.283       .  A
O375        C387   1.267       .  A
O376        C388   1.274       .  A
O377        C386   1.268       .  A
O378        C388   1.289       .  A
O379        C387   1.271       .  A
O380        C389   1.270       .  A
O381        C390   1.264       .  A
O382        C389   1.273       .  A
O383        C390   1.268       .  A
O384        C391   1.271       .  A
O385        C391   1.285       .  A
C386       C1208   1.504       .  S
C387       C1328   1.479       .  S
C388       C1160   1.469       .  S
C389       C1169   1.478       .  S
C390       C1193   1.436   1_545  S
C391       C1184   1.517       .  S
Zn392       O396   1.918       .  S
Zn392       O397   1.990       .  S
Zn392       O401   2.012       .  S
Zn392       O408   1.953       .  S
Zn393       O396   1.944       .  S
Zn393       O398   1.995       .  S
Zn393       O400   2.025       .  S
Zn393       O404   1.997       .  S
Zn394       O396   1.927       .  S
Zn394       O399   2.004       .  S
Zn394       O402   1.912       .  S
Zn394       O405   1.973       .  S
Zn395       O396   1.962       .  S
Zn395       O403   2.134       .  S
Zn395       O406   2.134       .  S
Zn395       O407   2.123       .  S
O397        C409   1.270       .  A
O398        C410   1.273       .  A
O399        C411   1.270       .  A
O400        C409   1.270       .  A
O401        C411   1.268       .  A
O402        C410   1.261       .  A
O403        C412   1.286       .  A
O404        C413   1.275       .  A
O405        C412   1.267       .  A
O406        C413   1.291       .  A
O407        C414   1.292       .  A
O408        C414   1.273       .  A
C409       C1253   1.493       .  S
C410       C1196   1.457       .  S
C411       C1121   1.491       .  S
C412       C1136   1.496       .  S
C413       C1145   1.496   1_556  S
C414       C1109   1.492       .  S
Zn415       O419   1.939       .  S
Zn415       O420   1.967       .  S
Zn415       O424   2.025       .  S
Zn415       O431   2.046       .  S
Zn416       O419   1.975       .  S
Zn416       O421   2.136       .  S
Zn416       O423   2.085       .  S
Zn416       O427   2.128       .  S
Zn417       O419   1.919       .  S
Zn417       O422   1.997       .  S
Zn417       O425   1.968       .  S
Zn417       O428   1.939       .  S
Zn418       O419   1.921       .  S
Zn418       O426   1.920       .  S
Zn418       O429   1.955       .  S
Zn418       O430   1.974       .  S
O420        C432   1.275       .  A
O421        C433   1.289       .  A
O422        C434   1.268       .  A
O423        C432   1.289       .  A
O424        C434   1.273       .  A
O425        C433   1.268       .  A
O426        C435   1.263       .  A
O427        C436   1.283       .  A
O428        C435   1.266       .  A
O429        C436   1.263       .  A
O430        C437   1.265       .  A
O431        C437   1.271       .  A
C432       C1220   1.467       .  S
C433       C1133   1.498       .  S
C434       C1097   1.488       .  S
C435       C1085   1.443       .  S
C436       C1073   1.492       .  S
C437       C1061   1.485       .  S
Zn438       O442   1.935       .  S
Zn438       O443   2.048       .  S
Zn438       O447   2.105       .  S
Zn438       O454   2.069       .  S
Zn439       O442   1.932       .  S
Zn439       O444   2.056       .  S
Zn439       O446   2.013       .  S
Zn439       O450   2.066       .  S
Zn440       O442   1.901       .  S
Zn440       O445   1.996       .  S
Zn440       O448   2.038       .  S
Zn440       O451   1.938       .  S
Zn441       O442   1.919       .  S
Zn441       O449   1.930       .  S
Zn441       O452   1.976       .  S
Zn441       O453   1.932       .  S
O443        C455   1.287       .  A
O444        C456   1.278       .  A
O445        C457   1.274       .  A
O446        C455   1.283       .  A
O447        C457   1.286       .  A
O448        C456   1.274       .  A
O449        C458   1.265       .  A
O450        C459   1.272       .  A
O451        C458   1.268       .  A
O452        C459   1.259       .  A
O453        C460   1.259       .  A
O454        C460   1.277       .  A
C455       C1424   1.487       .  S
C456       C1205   1.494   1_565  S
C457       C1052   1.497       .  S
C458       C1088   1.443       .  S
C459       C1124   1.474       .  S
C460       C1037   1.483       .  S
Zn461       O465   1.906       .  S
Zn461       O466   1.969       .  S
Zn461       O470   1.950       .  S
Zn461       O477   1.931       .  S
Zn462       O465   1.943       .  S
Zn462       O467   2.086       .  S
Zn462       O469   2.067       .  S
Zn462       O473   2.049       .  S
Zn463       O465   1.910       .  S
Zn463       O468   1.976       .  S
Zn463       O471   2.015       .  S
Zn463       O474   2.058       .  S
Zn464       O465   1.932       .  S
Zn464       O472   2.053       .  S
Zn464       O475   2.010       .  S
Zn464       O476   2.063       .  S
O466        C478   1.262       .  A
O467        C479   1.284       .  A
O468        C480   1.273       .  A
O469        C478   1.276       .  A
O470        C480   1.266       .  A
O471        C479   1.277       .  A
O472        C481   1.280       .  A
O473        C482   1.285       .  A
O474        C481   1.278       .  A
O475        C482   1.280       .  A
O476        C483   1.276       .  A
O477        C483   1.263       .  A
C478       C1352   1.484       .  S
C479       C1076   1.502       .  S
C480       C1025   1.446       .  S
C481       C1016   1.507       .  S
C482        C989   1.474       .  S
C483       C1001   1.489       .  S
Zn484       O488   1.919       .  S
Zn484       O489   2.005       .  S
Zn484       O493   1.952       .  S
Zn484       O500   1.989       .  S
Zn485       O488   1.948       .  S
Zn485       O490   2.022       .  S
Zn485       O492   2.022       .  S
Zn485       O496   1.953       .  S
Zn486       O488   1.923       .  S
Zn486       O491   1.964       .  S
Zn486       O494   1.966       .  S
Zn486       O497   1.975       .  S
Zn487       O488   1.966       .  S
Zn487       O495   2.149       .  S
Zn487       O498   2.111       .  S
Zn487       O499   2.114       .  S
O489        C501   1.271       .  A
O490        C502   1.270       .  A
O491        C503   1.265       .  A
O492        C501   1.270       .  A
O493        C503   1.267       .  A
O494        C502   1.267       .  A
O495        C504   1.291       .  A
O496        C505   1.272       .  A
O497        C504   1.269       .  A
O498        C505   1.290       .  A
O499        C506   1.284       .  A
O500        C506   1.271       .  A
C501       C1064   1.475       .  S
C502       C1280   1.476       .  S
C503       C1028   1.447       .  S
C504        C977   1.497       .  S
C505        C968   1.475       .  S
C506       C1049   1.492       .  S
Zn507       O511   1.918       .  S
Zn507       O512   2.128       .  S
Zn507       O516   2.132       .  S
Zn507       O523   2.128       .  S
Zn508       O511   1.924       .  S
Zn508       O513   1.991       .  S
Zn508       O515   1.974       .  S
Zn508       O519   1.974       .  S
Zn509       O511   1.875       .  S
Zn509       O514   1.939       .  S
Zn509       O517   2.025       .  S
Zn509       O520   1.983   1_556  S
Zn510       O511   1.878       .  S
Zn510       O518   2.026   1_556  S
Zn510       O521   1.971       .  S
Zn510       O522   2.003       .  S
O512        C524   1.290       .  A
O513        C525   1.272       .  A
O514        C526   1.272       .  A
O515        C524   1.270       .  A
O516        C526   1.295       .  A
O517        C525   1.271       .  A
O518        C527   1.273       .  A
O519        C528   1.265       .  A
O520        C527   1.271       .  A
O521        C528   1.270       .  A
O522        C529   1.272       .  A
O523        C529   1.288       .  A
C524       C1181   1.491       .  S
C525        C953   1.488       .  S
C526       C1244   1.500       .  S
C527       C1004   1.467       .  S
C528        C941   1.439       .  S
C529        C980   1.521   1_545  S
Zn530       O534   1.925       .  S
Zn530       O535   1.963       .  S
Zn530       O539   1.963       .  S
Zn530       O546   2.000       .  S
Zn531       O534   1.974       .  S
Zn531       O536   2.128       .  S
Zn531       O538   2.143       .  S
Zn531       O542   2.115       .  S
Zn532       O534   1.914       .  S
Zn532       O537   1.951       .  S
Zn532       O540   1.983       .  S
Zn532       O543   1.981   1_554  S
Zn533       O534   1.939       .  S
Zn533       O541   2.020       .  S
Zn533       O544   1.953       .  S
Zn533       O545   2.023       .  S
O535        C547   1.271       .  A
O536        C548   1.285       .  A
O537        C549   1.267       .  A
O538        C547   1.291       .  A
O539        C549   1.267       .  A
O540        C548   1.269       .  A
O541        C550   1.269   1_554  A
O542        C551   1.290       .  A
O543        C550   1.268       .  A
O544        C551   1.273       .  A
O545        C552   1.270       .  A
O546        C552   1.268       .  A
C547       C1013   1.495       .  S
C548       C1148   1.501   1_545  S
C549        C944   1.459       .  S
C550       C1172   1.476       .  S
C551       C1484   1.489       .  S
C552        C929   1.475       .  S
Zn553       O557   1.956       .  S
Zn553       O558   2.111       .  S
Zn553       O562   2.155       .  S
Zn553       O569   2.138       .  S
Zn554       O557   1.934       .  S
Zn554       O559   2.031       .  S
Zn554       O561   1.955       .  S
Zn554       O565   2.026       .  S
Zn555       O557   1.909       .  S
Zn555       O560   1.948       .  S
Zn555       O563   1.981       .  S
Zn555       O566   1.948       .  S
Zn556       O557   1.913       .  S
Zn556       O564   1.946       .  S
Zn556       O567   1.981       .  S
Zn556       O568   1.969       .  S
O558        C570   1.292       .  A
O559        C571   1.271       .  A
O560        C572   1.269       .  A
O561        C570   1.275       .  A
O562        C572   1.292       .  A
O563        C571   1.267       .  A
O564        C573   1.262       .  A
O565        C574   1.273       .  A
O566        C573   1.265       .  A
O567        C574   1.268       .  A
O568        C575   1.267       .  A
O569        C575   1.286       .  A
C570       C1697   1.489       .  S
C571        C992   1.485       .  S
C572        C917   1.498       .  S
C573        C908   1.462       .  S
C574        C884   1.479       .  S
C575        C893   1.493       .  S
Zn576       O580   1.969       .  S
Zn576       O581   2.082       .  S
Zn576       O585   2.135       .  S
Zn576       O592   2.131       .  S
Zn577       O580   1.941       .  S
Zn577       O582   2.047       .  S
Zn577       O584   1.979       .  S
Zn577       O588   2.033       .  S
Zn578       O580   1.935       .  S
Zn578       O583   1.969       .  S
Zn578       O586   1.969       .  S
Zn578       O589   1.973       .  S
Zn579       O580   1.886       .  S
Zn579       O587   1.923       .  S
Zn579       O590   1.995       .  S
Zn579       O591   1.966       .  S
O581        C593   1.287       .  A
O582        C594   1.275       .  A
O583        C595   1.268       .  A
O584        C593   1.276       .  A
O585        C595   1.287       .  A
O586        C594   1.265       .  A
O587        C596   1.265       .  A
O588        C597   1.272       .  A
O589        C596   1.265       .  A
O590        C597   1.269       .  A
O591        C598   1.268       .  A
O592        C598   1.284       .  A
C593       C1520   1.469       .  S
C594       C1157   1.492       .  S
C595        C869   1.508       .  S
C596        C905   1.435       .  S
C597        C845   1.470       .  S
C598        C860   1.508       .  S
Zn599       O603   1.945       .  S
Zn599       O604   2.065       .  S
Zn599       O608   2.118       .  S
Zn599       O615   2.082       .  S
Zn600       O603   1.914       .  S
Zn600       O605   1.950       .  S
Zn600       O607   1.966       .  S
Zn600       O611   1.981       .  S
Zn601       O603   1.930       .  S
Zn601       O606   1.986       .  S
Zn601       O609   1.972       .  S
Zn601       O612   2.040       .  S
Zn602       O603   1.905       .  S
Zn602       O610   2.036       .  S
Zn602       O613   2.038       .  S
Zn602       O614   1.957       .  S
O604        C616   1.276       .  A
O605        C617   1.265       .  A
O606        C618   1.276       .  A
O607        C616   1.264       .  A
O608        C618   1.287       .  A
O609        C617   1.267       .  A
O610        C619   1.277       .  A
O611        C620   1.268       .  A
O612        C619   1.275       .  A
O613        C620   1.273       .  A
O614        C621   1.274       .  A
O615        C621   1.290       .  A
C616       C1820   1.479       .  S
C617        C836   1.454       .  S
C618        C857   1.497       .  S
C619        C821   1.495       .  S
C620        C809   1.493       .  S
C621       C1040   1.481       .  S
Zn622       O626   1.927       .  S
Zn622       O627   1.969       .  S
Zn622       O631   1.976       .  S
Zn622       O638   1.910       .  S
Zn623       O626   1.943       .  S
Zn623       O628   2.051       .  S
Zn623       O630   2.045       .  S
Zn623       O634   2.073       .  S
Zn624       O626   1.939       .  S
Zn624       O629   2.045       .  S
Zn624       O632   2.006       .  S
Zn624       O635   2.051       .  S
Zn625       O626   1.973       .  S
Zn625       O633   2.050       .  S
Zn625       O636   2.041       .  S
Zn625       O637   1.987       .  S
O627        C639   1.263       .  A
O628        C640   1.282       .  A
O629        C641   1.274       .  A
O630        C639   1.275       .  A
O631        C641   1.267       .  A
O632        C640   1.276       .  A
O633        C642   1.278       .  A
O634        C643   1.283       .  A
O635        C642   1.280       .  A
O636        C643   1.279       .  A
O637        C644   1.266       .  A
O638        C644   1.263       .  A
C639       C1568   1.482       .  S
C640        C932   1.472       .  S
C641        C848   1.494       .  S
C642        C920   1.501       .  S
C643        C800   1.502   1_554  S
C644        C833   1.442       .  S
Zn645       O649   1.946       .  S
Zn645       O650   2.042       .  S
Zn645       O654   2.061       .  S
Zn645       O661   2.095       .  S
Zn646       O649   1.921       .  S
Zn646       O651   2.078       .  S
Zn646       O653   2.021       .  S
Zn646       O657   2.082       .  S
Zn647       O649   1.893       .  S
Zn647       O652   1.973       .  S
Zn647       O655   1.968       .  S
Zn647       O658   1.934       .  S
Zn648       O649   1.912       .  S
Zn648       O656   1.952       .  S
Zn648       O659   2.002       .  S
Zn648       O660   1.981       .  S
O650        C662   1.286       .  A
O651        C663   1.280   1_554  A
O652        C664   1.263       .  A
O653        C662   1.284       .  A
O654        C664   1.275       .  A
O655        C663   1.268   1_554  A
O656        C665   1.265       .  A
O657        C666   1.281       .  A
O658        C665   1.263       .  A
O659        C666   1.272       .  A
O660        C667   1.273       .  A
O661        C667   1.283       .  A
C662       C1736   1.468       .  S
C663        C761   1.489       .  S
C664        C965   1.482       .  S
C665        C785   1.448       .  S
C666        C776   1.501       .  S
C667        C824   1.496       .  S
Zn668       O672   1.977       .  S
Zn668       O673   2.106       .  S
Zn668       O677   2.144       .  S
Zn668       O684   2.129       .  S
Zn669       O672   1.926       .  S
Zn669       O674   2.017       .  S
Zn669       O676   1.958       .  S
Zn669       O680   2.033   1_556  S
Zn670       O672   1.924       .  S
Zn670       O675   1.958       .  S
Zn670       O678   2.021       .  S
Zn670       O681   1.930       .  S
Zn671       O672   1.940       .  S
Zn671       O679   1.929       .  S
Zn671       O682   1.981   1_556  S
Zn671       O683   1.967       .  S
O673        C685   1.291       .  A
O674        C686   1.272       .  A
O675        C687   1.268       .  A
O676        C685   1.275       .  A
O677        C687   1.290       .  A
O678        C686   1.270       .  A
O679        C688   1.265       .  A
O680        C689   1.270       .  A
O681        C688   1.265       .  A
O682        C689   1.266       .  A
O683        C690   1.264       .  A
O684        C690   1.283       .  A
C685       C1556   1.482       .  S
C686       C1112   1.493       .  S
C687        C749   1.494       .  S
C688        C788   1.442       .  S
C689        C812   1.474       .  S
C690        C797   1.493       .  S
Zn691       O695   1.921       .  S
Zn691       O696   2.052       .  S
Zn691       O700   2.079       .  S
Zn691       O707   2.042       .  S
Zn692       O695   1.911       .  S
Zn692       O697   1.936       .  S
Zn692       O699   1.971       .  S
Zn692       O703   2.009       .  S
Zn693       O695   1.974       .  S
Zn693       O698   2.037       .  S
Zn693       O701   1.977       .  S
Zn693       O704   2.061       .  S
Zn694       O695   1.890       .  S
Zn694       O702   2.054       .  S
Zn694       O705   2.048       .  S
Zn694       O706   2.018       .  S
O696        C708   1.275       .  A
O697        C709   1.258       .  A
O698        C710   1.279       .  A
O699        C708   1.263       .  A
O700        C710   1.284       .  A
O701        C709   1.267       .  A
O702        C711   1.280       .  A
O703        C712   1.273       .  A
O704        C711   1.279       .  A
O705        C712   1.279       .  A
O706        C713   1.280       .  A
O707        C713   1.284       .  A
C708       C1760   1.486       .  S
C709        C737   1.457       .  S
C710        C896   1.499       .  S
C711        C752   1.497       .  S
C712        C764   1.499       .  S
C713       C1100   1.471       .  S
Zn714       O718   1.925       .  S
Zn714       O719   1.948       .  S
Zn714       O723   1.959       .  S
Zn714       O730   1.905       .  S
Zn715       O718   1.968       .  S
Zn715       O720   2.048       .  S
Zn715       O722   2.066       .  S
Zn715       O726   2.073       .  S
Zn716       O718   1.948       .  S
Zn716       O721   2.043       .  S
Zn716       O724   2.001       .  S
Zn716       O727   2.058       .  S
Zn717       O718   1.961       .  S
Zn717       O725   2.049       .  S
Zn717       O728   2.013       .  S
Zn717       O729   1.976       .  S
O719        C731   1.260       .  A
O720        C732   1.283       .  A
O721        C733   1.273       .  A
O722        C731   1.273       .  A
O723        C733   1.264       .  A
O724        C732   1.278       .  A
O725        C734   1.276       .  A
O726        C735   1.283       .  A
O727        C734   1.279       .  A
O728        C735   1.276       .  A
O729        C736   1.266       .  A
O730        C736   1.263       .  A
C731       C1616   1.470       .  S
C732        C956   1.479       .  S
C733        C881   1.477       .  S
C734        C872   1.502       .  S
C735        C773   1.493   1_556  S
C736        C740   1.459       .  S
C737        C738   1.405       .  A
C737        C742   1.411       .  A
C738        C739   1.390       .  A
C738        H743   1.085       .  S
C739        C740   1.410       .  A
C739        C746   1.445       .  S
C740        C741   1.403       .  A
C741        C742   1.382       .  A
C741        H744   1.086       .  S
C742        C745   1.447       .  S
C745        N747   1.157       .  T
C746        N748   1.157       .  T
C749        C750   1.410       .  A
C749        C754   1.416       .  A
C750        C751   1.421       .  A
C750        H755   1.084       .  S
C751        C752   1.415       .  A
C751        C758   1.441       .  S
C752        C753   1.402       .  A
C753        C754   1.399       .  A
C753        H756   1.086       .  S
C754        C757   1.447       .  S
C757        N759   1.157       .  T
C758        N760   1.157       .  T
C761        C762   1.402       .  A
C761        C766   1.417       .  A
C762        C763   1.407       .  A
C762        H767   1.085       .  S
C763        C764   1.423       .  A
C763        C770   1.443       .  S
C764        C765   1.406       .  A
C765        C766   1.400       .  A
C765        H768   1.084       .  S
C766        C769   1.446       .  S
C769        N771   1.157       .  T
C770        N772   1.157       .  T
C773        C774   1.409       .  A
C773        C778   1.411       .  A
C774        C775   1.411       .  A
C774        H779   1.085       .  S
C775        C776   1.414       .  A
C775        C782   1.443       .  S
C776        C777   1.411       .  A
C777        C778   1.405       .  A
C777        H780   1.085       .  S
C778        C781   1.445       .  S
C781        N783   1.157       .  T
C782        N784   1.157       .  T
C785        C786   1.403       .  A
C785        C790   1.410       .  A
C786        C787   1.379       .  A
C786        H791   1.085       .  S
C787        C788   1.407   1_554  A
C787        C794   1.447   1_554  S
C788        C789   1.400   1_556  A
C789        C790   1.384       .  A
C789        H792   1.086       .  S
C790        C793   1.446       .  S
C793        N795   1.157       .  T
C794        N796   1.157       .  T
C797        C798   1.405       .  A
C797        C802   1.414       .  A
C798        C799   1.410       .  A
C798        H803   1.085       .  S
C799        C800   1.419       .  A
C799        C806   1.445   1_556  S
C800        C801   1.408       .  A
C801        C802   1.411       .  A
C801        H804   1.084       .  S
C802        C805   1.443       .  S
C805        N807   1.157       .  T
C806        N808   1.157       .  T
C809        C810   1.410       .  A
C809        C814   1.417       .  A
C810        C811   1.395       .  A
C810        H815   1.082       .  S
C811        C812   1.406       .  A
C811        C818   1.445       .  S
C812        C813   1.405       .  A
C813        C814   1.405       .  A
C813        H816   1.085       .  S
C814        C817   1.444       .  S
C817        N819   1.157       .  T
C818        N820   1.157       .  T
C821        C822   1.412       .  A
C821        C826   1.414       .  A
C822        C823   1.420       .  A
C822        H827   1.084       .  S
C823        C824   1.414       .  A
C823        C830   1.441       .  S
C824        C825   1.405       .  A
C825        C826   1.394       .  A
C825        H828   1.086       .  S
C826        C829   1.448       .  S
C829        N831   1.158       .  T
C830        N832   1.157       .  T
C833        C834   1.396       .  A
C833        C838   1.406       .  A
C834        C835   1.383       .  A
C834        H839   1.086       .  S
C835        C836   1.413       .  A
C835        C842   1.446       .  S
C836        C837   1.402       .  A
C837        C838   1.391       .  A
C837        H840   1.085       .  S
C838        C841   1.443       .  S
C841        N843   1.157       .  T
C842        N844   1.157       .  T
C845        C846   1.402       .  A
C845        C850   1.404       .  A
C846        C847   1.402       .  A
C846        H851   1.085       .  S
C847        C848   1.416       .  A
C847        C854   1.443       .  S
C848        C849   1.413       .  A
C849        C850   1.399       .  A
C849        H852   1.084       .  S
C850        C853   1.444       .  S
C853        N855   1.157       .  T
C854        N856   1.157       .  T
C857        C858   1.401       .  A
C857        C862   1.414       .  A
C858        C859   1.393       .  A
C858        H863   1.086       .  S
C859        C860   1.421       .  A
C859        C866   1.447       .  S
C860        C861   1.416       .  A
C861        C862   1.424       .  A
C861        H864   1.084       .  S
C862        C865   1.440       .  S
C865        N867   1.157       .  T
C866        N868   1.157       .  T
C869        C870   1.414       .  A
C869        C874   1.417       .  A
C870        C871   1.407       .  A
C870        H875   1.085       .  S
C871        C872   1.410       .  A
C871        C878   1.443       .  S
C872        C873   1.411       .  A
C873        C874   1.414       .  A
C873        H876   1.085       .  S
C874        C877   1.443       .  S
C877        N879   1.157       .  T
C878        N880   1.157       .  T
C881        C882   1.408       .  A
C881        C886   1.410       .  A
C882        C883   1.401       .  A
C882        H887   1.085       .  S
C883        C884   1.409       .  A
C883        C890   1.444       .  S
C884        C885   1.407       .  A
C885        C886   1.397       .  A
C885        H888   1.084       .  S
C886        C889   1.445       .  S
C889        N891   1.157       .  T
C890        N892   1.157       .  T
C893        C894   1.404       .  A
C893        C898   1.415       .  A
C894        C895   1.409       .  A
C894        H899   1.085       .  S
C895        C896   1.418       .  A
C895        C902   1.445       .  S
C896        C897   1.407       .  A
C897        C898   1.412       .  A
C897        H900   1.084       .  S
C898        C901   1.443       .  S
C901        N903   1.157       .  T
C902        N904   1.157       .  T
C905        C906   1.396       .  A
C905        C910   1.406       .  A
C906        C907   1.392       .  A
C906        H911   1.085       .  S
C907        C908   1.417       .  A
C907        C914   1.445       .  S
C908        C909   1.401       .  A
C909        C910   1.383       .  A
C909        H912   1.085       .  S
C910        C913   1.446       .  S
C913        N915   1.157       .  T
C914        N916   1.157       .  T
C917        C918   1.411       .  A
C917        C922   1.412       .  A
C918        C919   1.403       .  A
C918        H923   1.085       .  S
C919        C920   1.411       .  A
C919        C926   1.444       .  S
C920        C921   1.413       .  A
C921        C922   1.416       .  A
C921        H924   1.084       .  S
C922        C925   1.442       .  S
C925        N927   1.157       .  T
C926        N928   1.157       .  T
C929        C930   1.399       .  A
C929        C934   1.415       .  A
C930        C931   1.402       .  A
C930        H935   1.085       .  S
C931        C932   1.414       .  A
C931        C938   1.444       .  S
C932        C933   1.398       .  A
C933        C934   1.402       .  A
C933        H936   1.085       .  S
C934        C937   1.445       .  S
C937        N939   1.157       .  T
C938        N940   1.157       .  T
C941        C942   1.400       .  A
C941        C946   1.398       .  A
C942        C943   1.391   1_556  A
C942        H947   1.086   1_556  S
C943        C944   1.410       .  A
C943        C950   1.445       .  S
C944        C945   1.406   1_554  A
C945        C946   1.388       .  A
C945        H948   1.085       .  S
C946        C949   1.444       .  S
C949        N951   1.157       .  T
C950        N952   1.157       .  T
C953        C954   1.403       .  A
C953        C958   1.422       .  A
C954        C955   1.396       .  A
C954        H959   1.085       .  S
C955        C956   1.415       .  A
C955        C962   1.446       .  S
C956        C957   1.400       .  A
C957        C958   1.405       .  A
C957        H960   1.085       .  S
C958        C961   1.444       .  S
C961        N963   1.157   1_556  T
C962        N964   1.157       .  T
C965        C966   1.402       .  A
C965        C970   1.415       .  A
C966        C967   1.399       .  A
C966        H971   1.085       .  S
C967        C968   1.413       .  A
C967        C974   1.445       .  S
C968        C969   1.403       .  A
C969        C970   1.407       .  A
C969        H972   1.084       .  S
C970        C973   1.444       .  S
C973        N975   1.157       .  T
C974        N976   1.157       .  T
C977        C978   1.400       .  A
C977        C982   1.416   1_554  A
C978        C979   1.409   1_554  A
C978        H983   1.085       .  S
C979        C980   1.429       .  A
C979        C986   1.443   1_566  S
C980        C981   1.410       .  A
C981        C982   1.416       .  A
C981        H984   1.084       .  S
C982        C985   1.441       .  S
C985        N987   1.157       .  T
C986        N988   1.157       .  T
C989        C990   1.398       .  A
C989        C994   1.413       .  A
C990        C991   1.398       .  A
C990        H995   1.085       .  S
C991        C992   1.419       .  A
C991        C998   1.445       .  S
C992        C993   1.405       .  A
C993        C994   1.403       .  A
C993        H996   1.085       .  S
C994        C997   1.445       .  S
C997        N999   1.157       .  T
C998       N1000   1.157       .  T
C1001      C1002   1.412       .  A
C1001      C1006   1.415       .  A
C1002      C1003   1.392       .  A
C1002      H1007   1.084       .  S
C1003      C1004   1.403       .  A
C1003      C1010   1.446       .  S
C1004      C1005   1.403       .  A
C1005      C1006   1.404       .  A
C1005      H1008   1.084       .  S
C1006      C1009   1.443       .  S
C1009      N1011   1.157       .  T
C1010      N1012   1.157       .  T
C1013      C1014   1.404       .  A
C1013      C1018   1.416       .  A
C1014      C1015   1.414       .  A
C1014      H1019   1.085       .  S
C1015      C1016   1.423       .  A
C1015      C1022   1.443       .  S
C1016      C1017   1.406       .  A
C1017      C1018   1.405       .  A
C1017      H1020   1.085       .  S
C1018      C1021   1.445       .  S
C1021      N1023   1.157       .  T
C1022      N1024   1.157       .  T
C1025      C1026   1.404       .  A
C1025      C1030   1.403   1_545  A
C1026      C1027   1.391   1_545  A
C1026      H1031   1.085       .  S
C1027      C1028   1.404       .  A
C1027      C1034   1.444       .  S
C1028      C1029   1.402       .  A
C1029      C1030   1.386       .  A
C1029      H1032   1.085       .  S
C1030      C1033   1.445       .  S
C1033      N1035   1.157       .  T
C1034      N1036   1.157       .  T
C1037      C1038   1.397       .  A
C1037      C1042   1.424       .  A
C1038      C1039   1.396       .  A
C1038      H1043   1.085       .  S
C1039      C1040   1.422       .  A
C1039      C1046   1.446       .  S
C1040      C1041   1.397       .  A
C1041      C1042   1.401       .  A
C1041      H1044   1.085       .  S
C1042      C1045   1.445       .  S
C1045      N1047   1.157       .  T
C1046      N1048   1.157       .  T
C1049      C1050   1.405       .  A
C1049      C1054   1.412       .  A
C1050      C1051   1.404       .  A
C1050      H1055   1.085       .  S
C1051      C1052   1.415       .  A
C1051      C1058   1.445       .  S
C1052      C1053   1.411       .  A
C1053      C1054   1.415       .  A
C1053      H1056   1.084       .  S
C1054      C1057   1.443       .  S
C1057      N1059   1.157       .  T
C1058      N1060   1.157       .  T
C1061      C1062   1.410       .  A
C1061      C1066   1.414       .  A
C1062      C1063   1.407       .  A
C1062      H1067   1.084       .  S
C1063      C1064   1.408       .  A
C1063      C1070   1.443       .  S
C1064      C1065   1.401       .  A
C1065      C1066   1.396       .  A
C1065      H1068   1.085       .  S
C1066      C1069   1.445       .  S
C1069      N1071   1.157       .  T
C1070      N1072   1.157       .  T
C1073      C1074   1.406   1_565  A
C1073      C1078   1.411   1_565  A
C1074      C1075   1.404       .  A
C1074      H1079   1.085   1_545  S
C1075      C1076   1.416       .  A
C1075      C1082   1.444       .  S
C1076      C1077   1.412       .  A
C1077      C1078   1.414       .  A
C1077      H1080   1.084       .  S
C1078      C1081   1.442       .  S
C1081      N1083   1.157       .  T
C1082      N1084   1.157       .  T
C1085      C1086   1.400       .  A
C1085      C1090   1.410       .  A
C1086      C1087   1.384       .  A
C1086      H1091   1.085       .  S
C1087      C1088   1.409       .  A
C1087      C1094   1.445       .  S
C1088      C1089   1.399       .  A
C1089      C1090   1.379       .  A
C1089      H1092   1.086       .  S
C1090      C1093   1.447       .  S
C1093      N1095   1.157       .  T
C1094      N1096   1.157       .  T
C1097      C1098   1.405       .  A
C1097      C1102   1.421       .  A
C1098      C1099   1.401       .  A
C1098      H1103   1.085       .  S
C1099      C1100   1.410       .  A
C1099      C1106   1.445       .  S
C1100      C1101   1.398       .  A
C1101      C1102   1.401       .  A
C1101      H1104   1.085       .  S
C1102      C1105   1.445       .  S
C1105      N1107   1.157       .  T
C1106      N1108   1.157       .  T
C1109      C1110   1.410       .  A
C1109      C1114   1.410       .  A
C1110      C1111   1.397       .  A
C1110      H1115   1.085       .  S
C1111      C1112   1.412       .  A
C1111      C1118   1.445       .  S
C1112      C1113   1.413       .  A
C1113      C1114   1.409       .  A
C1113      H1116   1.084       .  S
C1114      C1117   1.443       .  S
C1117      N1119   1.157       .  T
C1118      N1120   1.157       .  T
C1121      C1122   1.410       .  A
C1121      C1126   1.418       .  A
C1122      C1123   1.404       .  A
C1122      H1127   1.084       .  S
C1123      C1124   1.407       .  A
C1123      C1130   1.443       .  S
C1124      C1125   1.401       .  A
C1125      C1126   1.400       .  A
C1125      H1128   1.085       .  S
C1126      C1129   1.444       .  S
C1129      N1131   1.157       .  T
C1130      N1132   1.157       .  T
C1133      C1134   1.404       .  A
C1133      C1138   1.420       .  A
C1134      C1135   1.411       .  A
C1134      H1139   1.085       .  S
C1135      C1136   1.418       .  A
C1135      C1142   1.444       .  S
C1136      C1137   1.403       .  A
C1137      C1138   1.410       .  A
C1137      H1140   1.085       .  S
C1138      C1141   1.444       .  S
C1141      N1143   1.157       .  T
C1142      N1144   1.157       .  T
C1145      C1146   1.403       .  A
C1145      C1150   1.417       .  A
C1146      C1147   1.410       .  A
C1146      H1151   1.085       .  S
C1147      C1148   1.418       .  A
C1147      C1154   1.442       .  S
C1148      C1149   1.405       .  A
C1149      C1150   1.412       .  A
C1149      H1152   1.084       .  S
C1150      C1153   1.443       .  S
C1153      N1155   1.157       .  T
C1154      N1156   1.156   1_565  T
C1157      C1158   1.405       .  A
C1157      C1162   1.425       .  A
C1158      C1159   1.400       .  A
C1158      H1163   1.084       .  S
C1159      C1160   1.412       .  A
C1159      C1166   1.445       .  S
C1160      C1161   1.395       .  A
C1161      C1162   1.400       .  A
C1161      H1164   1.085       .  S
C1162      C1165   1.445       .  S
C1165      N1167   1.158       .  T
C1166      N1168   1.157       .  T
C1169      C1170   1.405       .  A
C1169      C1174   1.411       .  A
C1170      C1171   1.393       .  A
C1170      H1175   1.085       .  S
C1171      C1172   1.409       .  A
C1171      C1178   1.445       .  S
C1172      C1173   1.408       .  A
C1173      C1174   1.403       .  A
C1173      H1176   1.085       .  S
C1174      C1177   1.443       .  S
C1177      N1179   1.157       .  T
C1178      N1180   1.157       .  T
C1181      C1182   1.400       .  A
C1181      C1186   1.413       .  A
C1182      C1183   1.406       .  A
C1182      H1187   1.086       .  S
C1183      C1184   1.428       .  A
C1183      C1190   1.445       .  S
C1184      C1185   1.411       .  A
C1185      C1186   1.414       .  A
C1185      H1188   1.084       .  S
C1186      C1189   1.442       .  S
C1189      N1191   1.157       .  T
C1190      N1192   1.158       .  T
C1193      C1194   1.394       .  A
C1193      C1198   1.406       .  A
C1194      C1195   1.388       .  A
C1194      H1199   1.086       .  S
C1195      C1196   1.414       .  A
C1195      C1202   1.445       .  S
C1196      C1197   1.402       .  A
C1197      C1198   1.391       .  A
C1197      H1200   1.085       .  S
C1198      C1201   1.446   1_565  S
C1201      N1203   1.157       .  T
C1202      N1204   1.157       .  T
C1205      C1206   1.408       .  A
C1205      C1210   1.408       .  A
C1206      C1207   1.409       .  A
C1206      H1211   1.085   1_545  S
C1207      C1208   1.418       .  A
C1207      C1214   1.444       .  S
C1208      C1209   1.413       .  A
C1209      C1210   1.408       .  A
C1209      H1212   1.084       .  S
C1210      C1213   1.443       .  S
C1213      N1215   1.157       .  T
C1214      N1216   1.157       .  T
C1217      C1218   1.401       .  A
C1217      C1222   1.415       .  A
C1218      C1219   1.399       .  A
C1218      H1223   1.085       .  S
C1219      C1220   1.412   1_655  A
C1219      C1226   1.445   1_655  S
C1220      C1221   1.399   1_455  A
C1221      C1222   1.401       .  A
C1221      H1224   1.085   1_655  S
C1222      C1225   1.443       .  S
C1225      N1227   1.157       .  T
C1226      N1228   1.157       .  T
C1229      C1230   1.397       .  A
C1229      C1234   1.410       .  A
C1230      C1231   1.379       .  A
C1230      H1235   1.086       .  S
C1231      C1232   1.414   1_565  A
C1231      C1238   1.448   1_565  S
C1232      C1233   1.400   1_545  A
C1233      C1234   1.386       .  A
C1233      H1236   1.085       .  S
C1234      C1237   1.445       .  S
C1237      N1239   1.157       .  T
C1238      N1240   1.158       .  T
C1241      C1242   1.415       .  A
C1241      C1246   1.405       .  A
C1242      C1243   1.407   1_655  A
C1242      H1247   1.084       .  S
C1243      C1244   1.410       .  A
C1243      C1250   1.443       .  S
C1244      C1245   1.418       .  A
C1245      C1246   1.397   1_455  A
C1245      H1248   1.084       .  S
C1246      C1249   1.445       .  S
C1249      N1251   1.157       .  T
C1250      N1252   1.157       .  T
C1253      C1254   1.405       .  A
C1253      C1258   1.421       .  A
C1254      C1255   1.393       .  A
C1254      H1259   1.085       .  S
C1255      C1256   1.412       .  A
C1255      C1262   1.445       .  S
C1256      C1257   1.402       .  A
C1257      C1258   1.408       .  A
C1257      H1260   1.085       .  S
C1258      C1261   1.443       .  S
C1261      N1263   1.157       .  T
C1262      N1264   1.157       .  T
C1265      C1266   1.403       .  A
C1265      C1270   1.419       .  A
C1266      C1267   1.411       .  A
C1266      H1271   1.085       .  S
C1267      C1268   1.420       .  A
C1267      C1274   1.445       .  S
C1268      C1269   1.403       .  A
C1269      C1270   1.412       .  A
C1269      H1272   1.084       .  S
C1270      C1273   1.444       .  S
C1273      N1275   1.157       .  T
C1274      N1276   1.157       .  T
C1277      C1278   1.409       .  A
C1277      C1282   1.415       .  A
C1278      C1279   1.389   1_655  A
C1278      H1283   1.084       .  S
C1279      C1280   1.407       .  A
C1279      C1286   1.444       .  S
C1280      C1281   1.407       .  A
C1281      C1282   1.405   1_455  A
C1281      H1284   1.085       .  S
C1282      C1285   1.443       .  S
C1285      N1287   1.157       .  T
C1286      N1288   1.156       .  T
C1289      C1290   1.405       .  A
C1289      C1294   1.407       .  A
C1290      C1291   1.407       .  A
C1290      H1295   1.084       .  S
C1291      C1292   1.413       .  A
C1291      C1298   1.443       .  S
C1292      C1293   1.405       .  A
C1293      C1294   1.394       .  A
C1293      H1296   1.084       .  S
C1294      C1297   1.445       .  S
C1297      N1299   1.157       .  T
C1298      N1300   1.157       .  T
C1301      C1302   1.417   1_565  A
C1301      C1306   1.422       .  A
C1302      C1303   1.418       .  A
C1302      H1307   1.084       .  S
C1303      C1304   1.409       .  A
C1303      C1310   1.441       .  S
C1304      C1305   1.402   1_554  A
C1305      C1306   1.400   1_546  A
C1305      H1308   1.086       .  S
C1306      C1309   1.446   1_554  S
C1309      N1311   1.158       .  T
C1310      N1312   1.157       .  T
C1313      C1314   1.405   1_556  A
C1313      C1318   1.400       .  A
C1314      C1315   1.385       .  A
C1314      H1319   1.086       .  S
C1315      C1316   1.396       .  A
C1315      C1322   1.445       .  S
C1316      C1317   1.399       .  A
C1317      C1318   1.383   1_554  A
C1317      H1320   1.081   1_554  S
C1318      C1321   1.445       .  S
C1321      N1323   1.157       .  T
C1322      N1324   1.157       .  T
C1325      C1326   1.407       .  A
C1325      C1330   1.409       .  A
C1326      C1327   1.404       .  A
C1326      H1331   1.085       .  S
C1327      C1328   1.412       .  A
C1327      C1334   1.443       .  S
C1328      C1329   1.406       .  A
C1329      C1330   1.392       .  A
C1329      H1332   1.085       .  S
C1330      C1333   1.445       .  S
C1333      N1335   1.157       .  T
C1334      N1336   1.157       .  T
C1337      C1338   1.405       .  A
C1337      C1342   1.420       .  A
C1338      C1339   1.411       .  A
C1338      H1343   1.085       .  S
C1339      C1340   1.423       .  A
C1339      C1346   1.444       .  S
C1340      C1341   1.406       .  A
C1341      C1342   1.406       .  A
C1341      H1344   1.085       .  S
C1342      C1345   1.445       .  S
C1345      N1347   1.157       .  T
C1346      N1348   1.158       .  T
C1349      C1350   1.407       .  A
C1349      C1354   1.425       .  A
C1350      C1351   1.406   1_655  A
C1350      H1355   1.084       .  S
C1351      C1352   1.416       .  A
C1351      C1358   1.444       .  S
C1352      C1353   1.398       .  A
C1353      C1354   1.398   1_455  A
C1353      H1356   1.085       .  S
C1354      C1357   1.446       .  S
C1357      N1359   1.158       .  T
C1358      N1360   1.157       .  T
C1361      C1362   1.408       .  A
C1361      C1366   1.407       .  A
C1362      C1363   1.403       .  A
C1362      H1367   1.085       .  S
C1363      C1364   1.414       .  A
C1363      C1370   1.444       .  S
C1364      C1365   1.412       .  A
C1365      C1366   1.396       .  A
C1365      H1368   1.084       .  S
C1366      C1369   1.445       .  S
C1369      N1371   1.157       .  T
C1370      N1372   1.157       .  T
C1373      C1374   1.405       .  A
C1373      C1378   1.415       .  A
C1374      C1375   1.393       .  A
C1374      H1379   1.086       .  S
C1375      C1376   1.414       .  A
C1375      C1382   1.448   1_565  S
C1376      C1377   1.413       .  A
C1377      C1378   1.423       .  A
C1377      H1380   1.084       .  S
C1378      C1381   1.441       .  S
C1381      N1383   1.157       .  T
C1382      N1384   1.157       .  T
C1385      C1386   1.407       .  A
C1385      C1390   1.415       .  A
C1386      C1387   1.381       .  A
C1386      H1391   1.085       .  S
C1387      C1388   1.403       .  A
C1387      C1394   1.448       .  S
C1388      C1389   1.398       .  A
C1389      C1390   1.393       .  A
C1389      H1392   1.085       .  S
C1390      C1393   1.444       .  S
C1393      N1395   1.157       .  T
C1394      N1396   1.157       .  T
C1397      C1398   1.413       .  A
C1397      C1402   1.415       .  A
C1398      C1399   1.401       .  A
C1398      H1403   1.085       .  S
C1399      C1400   1.403       .  A
C1399      C1406   1.444       .  S
C1400      C1401   1.404       .  A
C1401      C1402   1.403       .  A
C1401      H1404   1.085       .  S
C1402      C1405   1.444       .  S
C1405      N1407   1.157       .  T
C1406      N1408   1.157       .  T
C1409      C1410   1.410       .  A
C1409      C1414   1.411       .  A
C1410      C1411   1.407       .  A
C1410      H1415   1.085       .  S
C1411      C1412   1.414       .  A
C1411      C1418   1.444       .  S
C1412      C1413   1.411       .  A
C1413      C1414   1.409       .  A
C1413      H1416   1.085       .  S
C1414      C1417   1.443       .  S
C1417      N1419   1.157       .  T
C1418      N1420   1.157       .  T
C1421      C1422   1.404       .  A
C1421      C1426   1.406       .  A
C1422      C1423   1.401       .  A
C1422      H1427   1.085       .  S
C1423      C1424   1.415       .  A
C1423      C1430   1.444       .  S
C1424      C1425   1.411       .  A
C1425      C1426   1.399       .  A
C1425      H1428   1.084       .  S
C1426      C1429   1.445       .  S
C1429      N1431   1.157       .  T
C1430      N1432   1.157       .  T
C1433      C1434   1.407       .  A
C1433      C1438   1.416       .  A
C1434      C1435   1.395       .  A
C1434      H1439   1.085       .  S
C1435      C1436   1.413       .  A
C1435      C1442   1.447   1_565  S
C1436      C1437   1.411       .  A
C1437      C1438   1.420       .  A
C1437      H1440   1.084       .  S
C1438      C1441   1.441       .  S
C1441      N1443   1.157       .  T
C1442      N1444   1.158       .  T
C1445      C1446   1.403       .  A
C1445      C1450   1.420       .  A
C1446      C1447   1.401       .  A
C1446      H1451   1.084       .  S
C1447      C1448   1.420       .  A
C1447      C1454   1.445       .  S
C1448      C1449   1.402       .  A
C1449      C1450   1.400       .  A
C1449      H1452   1.085       .  S
C1450      C1453   1.445       .  S
C1453      N1455   1.157       .  T
C1454      N1456   1.157       .  T
C1457      C1458   1.405       .  A
C1457      C1462   1.413       .  A
C1458      C1459   1.413       .  A
C1458      H1463   1.085       .  S
C1459      C1460   1.422       .  A
C1459      C1466   1.443       .  S
C1460      C1461   1.409       .  A
C1461      C1462   1.407       .  A
C1461      H1464   1.085       .  S
C1462      C1465   1.445       .  S
C1465      N1467   1.157       .  T
C1466      N1468   1.157       .  T
C1469      C1470   1.394       .  A
C1469      C1474   1.407       .  A
C1470      C1471   1.384   1_565  A
C1470      H1475   1.086       .  S
C1471      C1472   1.409       .  A
C1471      C1478   1.447       .  S
C1472      C1473   1.395   1_545  A
C1473      C1474   1.387       .  A
C1473      H1476   1.085       .  S
C1474      C1477   1.446       .  S
C1477      N1479   1.157       .  T
C1478      N1480   1.158       .  T
C1481      C1482   1.413       .  A
C1481      C1486   1.409       .  A
C1482      C1483   1.410       .  A
C1482      H1487   1.084       .  S
C1483      C1484   1.409       .  A
C1483      C1490   1.442       .  S
C1484      C1485   1.410       .  A
C1485      C1486   1.395       .  A
C1485      H1488   1.085       .  S
C1486      C1489   1.445       .  S
C1489      N1491   1.157       .  T
C1490      N1492   1.157       .  T
C1493      C1494   1.405   1_556  A
C1493      C1498   1.414       .  A
C1494      C1495   1.405   1_554  A
C1494      H1499   1.085       .  S
C1495      C1496   1.416   1_545  A
C1495      C1502   1.445   1_545  S
C1496      C1497   1.410   1_565  A
C1497      C1498   1.417       .  A
C1497      H1500   1.084       .  S
C1498      C1501   1.442       .  S
C1501      N1503   1.157       .  T
C1502      N1504   1.157   1_556  T
C1505      C1506   1.407       .  A
C1505      C1510   1.408       .  A
C1506      C1507   1.403       .  A
C1506      H1511   1.085       .  S
C1507      C1508   1.410       .  A
C1507      C1514   1.444       .  S
C1508      C1509   1.406       .  A
C1509      C1510   1.393       .  A
C1509      H1512   1.085       .  S
C1510      C1513   1.445       .  S
C1513      N1515   1.157       .  T
C1514      N1516   1.157       .  T
C1517      C1518   1.398       .  A
C1517      C1522   1.412       .  A
C1518      C1519   1.396       .  A
C1518      H1523   1.079       .  S
C1519      C1520   1.411       .  A
C1519      C1526   1.445       .  S
C1520      C1521   1.403       .  A
C1521      C1522   1.406       .  A
C1521      H1524   1.084       .  S
C1522      C1525   1.444       .  S
C1525      N1527   1.157       .  T
C1526      N1528   1.157       .  T
C1529      C1530   1.404       .  A
C1529      C1534   1.404       .  A
C1530      C1531   1.400       .  A
C1530      H1535   1.085       .  S
C1531      C1532   1.407       .  A
C1531      C1538   1.443       .  S
C1532      C1533   1.407       .  A
C1533      C1534   1.400       .  A
C1533      H1536   1.085       .  S
C1534      C1537   1.443       .  S
C1537      N1539   1.157       .  T
C1538      N1540   1.157       .  T
C1541      C1542   1.399       .  A
C1541      C1546   1.408       .  A
C1542      C1543   1.385       .  A
C1542      H1547   1.085       .  S
C1543      C1544   1.406       .  A
C1543      C1550   1.445       .  S
C1544      C1545   1.395       .  A
C1545      C1546   1.379       .  A
C1545      H1548   1.086       .  S
C1546      C1549   1.444       .  S
C1549      N1551   1.156       .  T
C1550      N1552   1.157       .  T
C1553      C1554   1.399       .  A
C1553      C1558   1.422       .  A
C1554      C1555   1.395       .  A
C1554      H1559   1.084       .  S
C1555      C1556   1.418       .  A
C1555      C1562   1.446       .  S
C1556      C1557   1.400       .  A
C1557      C1558   1.406       .  A
C1557      H1560   1.084       .  S
C1558      C1561   1.444       .  S
C1561      N1563   1.157       .  T
C1562      N1564   1.157   1_556  T
C1565      C1566   1.408       .  A
C1565      C1570   1.409       .  A
C1566      C1567   1.394       .  A
C1566      H1571   1.085       .  S
C1567      C1568   1.409       .  A
C1567      C1574   1.444       .  S
C1568      C1569   1.411       .  A
C1569      C1570   1.405       .  A
C1569      H1572   1.085       .  S
C1570      C1573   1.443       .  S
C1573      N1575   1.157       .  T
C1574      N1576   1.157       .  T
C1577      C1578   1.402       .  A
C1577      C1582   1.405       .  A
C1578      C1579   1.398       .  A
C1578      H1583   1.085       .  S
C1579      C1580   1.412       .  A
C1579      C1586   1.445       .  S
C1580      C1581   1.410       .  A
C1581      C1582   1.405       .  A
C1581      H1584   1.084       .  S
C1582      C1585   1.443       .  S
C1585      N1587   1.157       .  T
C1586      N1588   1.157       .  T
C1589      C1590   1.408       .  A
C1589      C1594   1.418       .  A
C1590      C1591   1.408       .  A
C1590      H1595   1.085       .  S
C1591      C1592   1.413       .  A
C1591      C1598   1.444       .  S
C1592      C1593   1.405       .  A
C1593      C1594   1.410       .  A
C1593      H1596   1.085       .  S
C1594      C1597   1.443       .  S
C1597      N1599   1.157   1_554  T
C1598      N1600   1.157       .  T
C1601      C1602   1.408       .  A
C1601      C1606   1.419       .  A
C1602      C1603   1.399       .  A
C1602      H1607   1.084       .  S
C1603      C1604   1.408       .  A
C1603      C1610   1.445       .  S
C1604      C1605   1.399       .  A
C1605      C1606   1.401       .  A
C1605      H1608   1.085       .  S
C1606      C1609   1.444       .  S
C1609      N1611   1.157       .  T
C1610      N1612   1.157       .  T
C1613      C1614   1.407       .  A
C1613      C1618   1.413       .  A
C1614      C1615   1.406   1_655  A
C1614      H1619   1.084       .  S
C1615      C1616   1.409       .  A
C1615      C1622   1.443       .  S
C1616      C1617   1.399       .  A
C1617      C1618   1.397   1_455  A
C1617      H1620   1.085       .  S
C1618      C1621   1.441       .  S
C1621      N1623   1.156       .  T
C1622      N1624   1.157       .  T
C1625      C1626   1.396       .  A
C1625      C1630   1.411       .  A
C1626      C1627   1.383       .  A
C1626      H1631   1.085       .  S
C1627      C1628   1.405   1_556  A
C1627      C1634   1.446       .  S
C1628      C1629   1.394       .  A
C1629      C1630   1.387   1_554  A
C1629      H1632   1.085       .  S
C1630      C1633   1.446   1_556  S
C1633      N1635   1.157       .  T
C1634      N1636   1.157       .  T
C1637      C1638   1.403       .  A
C1637      C1642   1.417       .  A
C1638      C1639   1.405       .  A
C1638      H1643   1.084       .  S
C1639      C1640   1.413       .  A
C1639      C1646   1.444       .  S
C1640      C1641   1.398       .  A
C1641      C1642   1.397       .  A
C1641      H1644   1.085       .  S
C1642      C1645   1.446       .  S
C1645      N1647   1.157       .  T
C1646      N1648   1.157       .  T
C1649      C1650   1.401       .  A
C1649      C1654   1.414       .  A
C1650      C1651   1.395       .  A
C1650      H1655   1.086       .  S
C1651      C1652   1.422       .  A
C1651      C1658   1.446       .  S
C1652      C1653   1.417       .  A
C1653      C1654   1.427       .  A
C1653      H1656   1.083       .  S
C1654      C1657   1.441       .  S
C1657      N1659   1.157       .  T
C1658      N1660   1.157       .  T
C1661      C1662   1.405       .  A
C1661      C1666   1.404       .  A
C1662      C1663   1.403       .  A
C1662      H1667   1.085       .  S
C1663      C1664   1.414       .  A
C1663      C1670   1.444       .  S
C1664      C1665   1.414       .  A
C1665      C1666   1.403       .  A
C1665      H1668   1.084       .  S
C1666      C1669   1.443       .  S
C1669      N1671   1.157       .  T
C1670      N1672   1.157       .  T
C1673      C1674   1.407       .  A
C1673      C1678   1.410       .  A
C1674      C1675   1.403       .  A
C1674      H1679   1.085       .  S
C1675      C1676   1.416       .  A
C1675      C1682   1.445       .  S
C1676      C1677   1.409       .  A
C1677      C1678   1.399       .  A
C1677      H1680   1.083       .  S
C1678      C1681   1.444       .  S
C1681      N1683   1.157       .  T
C1682      N1684   1.157       .  T
C1685      C1686   1.403       .  A
C1685      C1690   1.422       .  A
C1686      C1687   1.406       .  A
C1686      H1691   1.085       .  S
C1687      C1688   1.418       .  A
C1687      C1694   1.444       .  S
C1688      C1689   1.405       .  A
C1689      C1690   1.414       .  A
C1689      H1692   1.085       .  S
C1690      C1693   1.444       .  S
C1693      N1695   1.157       .  T
C1694      N1696   1.157       .  T
C1697      C1698   1.412   1_455  A
C1697      C1702   1.410   1_455  A
C1698      C1699   1.398       .  A
C1698      H1703   1.085   1_655  S
C1699      C1700   1.408       .  A
C1699      C1706   1.444       .  S
C1700      C1701   1.412       .  A
C1701      C1702   1.404       .  A
C1701      H1704   1.085       .  S
C1702      C1705   1.443   1_655  S
C1705      N1707   1.157       .  T
C1706      N1708   1.157       .  T
C1709      C1710   1.406       .  A
C1709      C1714   1.407       .  A
C1710      C1711   1.401       .  A
C1710      H1715   1.085       .  S
C1711      C1712   1.406       .  A
C1711      C1718   1.443       .  S
C1712      C1713   1.401       .  A
C1713      C1714   1.397       .  A
C1713      H1716   1.085       .  S
C1714      C1717   1.442       .  S
C1717      N1719   1.156       .  T
C1718      N1720   1.157       .  T
C1721      C1722   1.396       .  A
C1721      C1726   1.412       .  A
C1722      C1723   1.385       .  A
C1722      H1727   1.085       .  S
C1723      C1724   1.410       .  A
C1723      C1730   1.446       .  S
C1724      C1725   1.395       .  A
C1725      C1726   1.385       .  A
C1725      H1728   1.086       .  S
C1726      C1729   1.446       .  S
C1729      N1731   1.157       .  T
C1730      N1732   1.157       .  T
C1733      C1734   1.403       .  A
C1733      C1738   1.417       .  A
C1734      C1735   1.404   1_655  A
C1734      H1739   1.084       .  S
C1735      C1736   1.412       .  A
C1735      C1742   1.444       .  S
C1736      C1737   1.396   1_455  A
C1737      C1738   1.395       .  A
C1737      H1740   1.085   1_655  S
C1738      C1741   1.445       .  S
C1741      N1743   1.157       .  T
C1742      N1744   1.157       .  T
C1745      C1746   1.412       .  A
C1745      C1750   1.408       .  A
C1746      C1747   1.413       .  A
C1746      H1751   1.085       .  S
C1747      C1748   1.412       .  A
C1747      C1754   1.443       .  S
C1748      C1749   1.410       .  A
C1749      C1750   1.405       .  A
C1749      H1752   1.085       .  S
C1750      C1753   1.440       .  S
C1753      N1755   1.156       .  T
C1754      N1756   1.157   1_556  T
C1757      C1758   1.402       .  A
C1757      C1762   1.420       .  A
C1758      C1759   1.407   1_655  A
C1758      H1763   1.084       .  S
C1759      C1760   1.420       .  A
C1759      C1766   1.444       .  S
C1760      C1761   1.399       .  A
C1761      C1762   1.397   1_455  A
C1761      H1764   1.085       .  S
C1762      C1765   1.446       .  S
C1765      N1767   1.157       .  T
C1766      N1768   1.157       .  T
C1769      C1770   1.407       .  A
C1769      C1774   1.416       .  A
C1770      C1771   1.388       .  A
C1770      H1775   1.085       .  S
C1771      C1772   1.413       .  A
C1771      C1778   1.447       .  S
C1772      C1773   1.407       .  A
C1773      C1774   1.405       .  A
C1773      H1776   1.084       .  S
C1774      C1777   1.443       .  S
C1777      N1779   1.157       .  T
C1778      N1780   1.157       .  T
C1781      C1782   1.406       .  A
C1781      C1786   1.416       .  A
C1782      C1783   1.416       .  A
C1782      H1787   1.084       .  S
C1783      C1784   1.420       .  A
C1783      C1790   1.444       .  S
C1784      C1785   1.405       .  A
C1785      C1786   1.409       .  A
C1785      H1788   1.085       .  S
C1786      C1789   1.444       .  S
C1789      N1791   1.157       .  T
C1790      N1792   1.157       .  T
C1793      C1794   1.399       .  A
C1793      C1798   1.408       .  A
C1794      C1795   1.398       .  A
C1794      H1799   1.086       .  S
C1795      C1796   1.420       .  A
C1795      C1802   1.444       .  S
C1796      C1797   1.410       .  A
C1797      C1798   1.407       .  A
C1797      H1800   1.084       .  S
C1798      C1801   1.443       .  S
C1801      N1803   1.157       .  T
C1802      N1804   1.157       .  T
C1805      C1806   1.401       .  A
C1805      C1810   1.416       .  A
C1806      C1807   1.409       .  A
C1806      H1811   1.085       .  S
C1807      C1808   1.421       .  A
C1807      C1814   1.444       .  S
C1808      C1809   1.403       .  A
C1809      C1810   1.408       .  A
C1809      H1812   1.084       .  S
C1810      C1813   1.443       .  S
C1813      N1815   1.157       .  T
C1814      N1816   1.157       .  T
C1817      C1818   1.414       .  A
C1817      C1822   1.417       .  A
C1818      C1819   1.402       .  A
C1818      H1823   1.084       .  S
C1819      C1820   1.405       .  A
C1819      C1826   1.444       .  S
C1820      C1821   1.405       .  A
C1821      C1822   1.404       .  A
C1821      H1824   1.085       .  S
C1822      C1825   1.444       .  S
C1825      N1827   1.157       .  T
C1826      N1828   1.157       .  T
C1829      C1830   1.405       .  A
C1829      C1834   1.412       .  A
C1830      C1831   1.403       .  A
C1830      H1835   1.085       .  S
C1831      C1832   1.412       .  A
C1831      C1838   1.444       .  S
C1832      C1833   1.403       .  A
C1833      C1834   1.401       .  A
C1833      H1836   1.085       .  S
C1834      C1837   1.442       .  S
C1837      N1839   1.156       .  T
C1838      N1840   1.157       .  T
C1841      C1842   1.408       .  A
C1841      C1846   1.423       .  A
C1842      C1843   1.419       .  A
C1842      H1847   1.084       .  S
C1843      C1844   1.421       .  A
C1843      C1850   1.441       .  S
C1844      C1845   1.400       .  A
C1845      C1846   1.401       .  A
C1845      H1848   1.085       .  S
C1846      C1849   1.442       .  S
C1849      N1851   1.156       .  T
C1850      N1852   1.157       .  T
C1853      C1854   1.408       .  A
C1853      C1858   1.409       .  A
C1854      C1855   1.389       .  A
C1854      H1859   1.085       .  S
C1855      C1856   1.404       .  A
C1855      C1862   1.445       .  S
C1856      C1857   1.405       .  A
C1857      C1858   1.388       .  A
C1857      H1860   1.085       .  S
C1858      C1861   1.446       .  S
C1861      N1863   1.157       .  T
C1862      N1864   1.157       .  T
C1865      C1866   1.404       .  A
C1865      C1870   1.426       .  A
C1866      C1867   1.399       .  A
C1866      H1871   1.084       .  S
C1867      C1868   1.410       .  A
C1867      C1874   1.445       .  S
C1868      C1869   1.394       .  A
C1869      C1870   1.399       .  A
C1869      H1872   1.085       .  S
C1870      C1873   1.445       .  S
C1873      N1875   1.158       .  T
C1874      N1876   1.157       .  T
C1877      C1878   1.410       .  A
C1877      C1882   1.414       .  A
C1878      C1879   1.414       .  A
C1878      H1883   1.085       .  S
C1879      C1880   1.413       .  A
C1879      C1886   1.443       .  S
C1880      C1881   1.407       .  A
C1881      C1882   1.408       .  A
C1881      H1884   1.085       .  S
C1882      C1885   1.443       .  S
C1885      N1887   1.157       .  T
C1886      N1888   1.157       .  T
