geometry optimzed in LAMMPS
_audit_creation_date              2020-12-01 
_audit_creation_method            'lammps2cif' 
_symmetry_space_group_name_H-M    'P1' 
_symmetry_Int_Tables_number       1 
_symmetry_cell_setting            triclinic 
loop_ 
_symmetry_equiv_pos_as_xyz 
  x,y,z 
_cell_length_a                    34.03164432 
_cell_length_b                    33.99152021921691 
_cell_length_c                    56.6247423906036 
_cell_angle_alpha                 90.10762004405848 
_cell_angle_beta                  91.26865681326852 
_cell_angle_gamma                 90.75816271901294 
loop_ 
_atom_site_label 
_atom_site_type_symbol 
_atom_site_fract_x 
_atom_site_fract_y 
_atom_site_fract_z 
_atom_site_charge 
O1          O  0.50080623  0.13095633  0.82621872    -0.80900
O2          O  0.52123369  0.05897739  0.92138926    -0.65600
O3          O  0.50121362  0.13496851  0.87432572    -1.12200
C4          C  0.63184370  0.17280823  0.88313144     1.06000
O5          O  0.55056936  0.10683299  0.94274979    -0.78800
O6          O  0.54712692  0.17943143  0.92270382    -0.66400
Ni7        Ni  0.46289969  0.12704721  0.85061055     1.34900
C8          C  0.54057287  0.20307912  0.90577048     0.84700
O9          O  0.45442870  0.07943273  0.89835779    -0.79300
O10         O  0.42401588  0.12213003  0.87437189    -0.89600
C11         C  0.53019650  0.07498150  0.94127587     0.84300
O12         O  0.46566220  0.07137484  0.84916988    -0.67800
O13         O  0.62149398  0.16880770  0.90461283    -0.87100
C14         C  0.49611495  0.05104314  0.85244095     0.85100
C15         C  0.42311296  0.09602889  0.89055821     1.06700
H16         H  0.58014900  0.09090086  0.89048582     0.38500
O17         O  0.56352494  0.11248796  0.89478497    -1.09800
O18         O  0.55005451  0.19494497  0.88481016    -0.66400
Ni19       Ni  0.55558460  0.14594289  0.86844133     1.26300
O20         O  0.51879026  0.05665126  0.87072521    -0.66600
O21         O  0.61091914  0.15870578  0.86586296    -0.78900
C22         C  0.52358152  0.16036198  0.82345905     0.84500
O23         O  0.54443216  0.17461681  0.84041195    -0.66100
Ni24       Ni  0.58437779  0.13722006  0.92240463     1.27400
Ni25       Ni  0.50968852  0.09499803  0.89644862     1.26100
H26         H  0.49087732  0.15652913  0.88324957     0.39100
O27         O  0.33626319  0.02872231  0.69012913    -0.80900
O28         O  0.46656020  0.98625974  0.61534148    -0.65600
O29         O  0.37958842  0.00830860  0.65325060    -1.12200
C30         C  0.35832804  0.87262424  0.65375155     1.06000
O31         O  0.42537203  0.95095242  0.59222028    -0.78800
O32         O  0.34912602  0.94497711  0.60659718    -0.66400
Ni33       Ni  0.38236813  0.04958097  0.67587172     1.34900
C34         C  0.32226279  0.95126925  0.62132417     0.84700
O35         O  0.43414634  0.05298053  0.62828515    -0.79300
O36         O  0.42711644  0.07782643  0.66360621    -0.89600
C37         C  0.45525053  0.97407202  0.59495656     0.84300
O38         O  0.41603090  0.01729217  0.69380719    -0.67800
O39         O  0.36681901  0.87742798  0.63191903    -0.87100
C40         C  0.44871009  0.00349020  0.68733770     0.85100
C41         C  0.43733569  0.08170677  0.64238983     1.06700
H42         H  0.43518386  0.93193875  0.64805243     0.38500
O43         O  0.41287796  0.94473987  0.64070590    -1.09800
O44         O  0.32885442  0.94954527  0.64334449    -0.66400
Ni45       Ni  0.37446067  0.95352983  0.66330519     1.26300
O46         O  0.45817788  0.99946287  0.66523378    -0.66600
O47         O  0.36763081  0.89819665  0.66966507    -0.78900
C48         C  0.32333910  0.99437158  0.69446193     0.84500
O49         O  0.33868894  0.96304079  0.68738115    -0.66100
Ni50       Ni  0.39647249  0.91585418  0.61325365     1.27400
Ni51       Ni  0.42454236  0.99876670  0.63552325     1.26100
H52         H  0.35868009  0.01499897  0.64223445     0.39100
O53         O  0.09766044  0.00973475  0.81577586    -0.80900
O54         O  0.01462061  0.98742094  0.90519251    -0.65600
O55         O  0.09772316  0.00972505  0.86395524    -1.12200
C56         C  0.13338476  0.87975722  0.87170385     1.06000
O57         O  0.05732843  0.95599893  0.92896570    -0.78800
O58         O  0.13334814  0.96273997  0.91399727    -0.66400
Ni59       Ni  0.09247676  0.04790555  0.84028245     1.34900
C60         C  0.16004655  0.96945763  0.89910782     0.84700
O61         O  0.04051920  0.05533438  0.88564371    -0.79300
O62         O  0.08568455  0.08704729  0.86407056    -0.89600
C63         C  0.02508762  0.97445018  0.92553368     0.84300
O64         O  0.03704040  0.04481654  0.83630878    -0.67800
O65         O  0.12636229  0.88879616  0.89319377    -0.87100
C66         C  0.01713904  0.01328078  0.83703595     0.85100
C67         C  0.05850531  0.08691186  0.87926252     1.06700
H68         H  0.05047213  0.92980352  0.87528526     0.38500
O69         O  0.07158348  0.94641364  0.88143985    -1.09800
O70         O  0.15542848  0.96133152  0.87730671    -0.66400
Ni71       Ni  0.10868091  0.95558478  0.85759672     1.26300
O72         O  0.02020905  0.99046569  0.85508439    -0.66600
O73         O  0.12086586  0.90072038  0.85438458    -0.78900
C74         C  0.12601837  0.98618341  0.81383208     0.84500
O75         O  0.14033121  0.96730524  0.83130460    -0.66100
Ni76       Ni  0.09162040  0.92437024  0.90979660     1.27400
Ni77       Ni  0.05479995  0.00005588  0.88330504     1.26100
H78         H  0.11823445  0.02031887  0.87422945     0.39100
O79         O  0.00622996  0.14995834  0.68725138    -0.80900
O80         O  0.95700830  0.04830842  0.60057075    -0.65600
O81         O  0.99700458  0.13099811  0.63958835    -1.12200
C82         C  0.86504674  0.17357146  0.63788254     1.06000
O83         O  0.93014598  0.09462541  0.57790578    -0.78800
O84         O  0.92395716  0.17209581  0.58941324    -0.66400
Ni85       Ni  0.03633375  0.12514219  0.66328655     1.34900
C86         C  0.94448649  0.19647339  0.60159108     0.84700
O87         O  0.02894573  0.06483871  0.61751985    -0.79300
O88         O  0.06966427  0.10004643  0.64129293    -0.89600
C89         C  0.94875632  0.06231030  0.58015069     0.84300
O90         O  0.01875747  0.07588018  0.67473539    -0.67800
O91         O  0.86242132  0.15549270  0.61799138    -0.87100
C92         C  0.99018578  0.05268110  0.66992015     0.85100
C93         C  0.06319484  0.07404628  0.62538957     1.06700
H94         H  0.91197120  0.09315139  0.63557228     0.38500
O95         O  0.92797979  0.11075548  0.62633554    -1.09800
O96         O  0.95429676  0.19069045  0.62292324    -0.66400
Ni97       Ni  0.94665647  0.15166359  0.64644874     1.26300
O98         O  0.97008132  0.05417909  0.65031957    -0.66600
O99         O  0.89528319  0.17220908  0.65165867    -0.78900
C100        C  0.98766986  0.18193741  0.68549411     0.84500
O101        O  0.96757403  0.19028935  0.66721992    -0.66100
Ni102      Ni  0.89737260  0.12445340  0.59897003     1.27400
Ni103      Ni  0.97810196  0.08722826  0.62193779     1.26100
H104        H  0.00913875  0.14817074  0.62821072     0.39100
O105        O  0.36800589  0.53131742  0.81841847    -0.80900
O106        O  0.46689763  0.57400326  0.90715894    -0.65600
O107        O  0.38479838  0.53923309  0.86590854    -1.12200
C108        C  0.34174467  0.67086650  0.86686409     1.06000
O109        O  0.42278967  0.60653257  0.92769892    -0.78800
O110        O  0.34631771  0.60668196  0.91534636    -0.66400
Ni111      Ni  0.38970366  0.49917478  0.84301683     1.34900
C112        C  0.32124205  0.58873488  0.90221337     0.84700
O113        O  0.44684327  0.50285962  0.89097951    -0.79300
O114        O  0.41072766  0.46426434  0.86640199    -0.89600
C115        C  0.45291749  0.58470014  0.92684896     0.84300
O116        O  0.44072505  0.51340450  0.83314392    -0.67800
O117        O  0.35789730  0.67148971  0.88747172    -0.87100
C118        C  0.46541742  0.54036963  0.83856150     0.85100
C119        C  0.43487953  0.46909861  0.88372191     1.06700
H120        H  0.42611195  0.62300991  0.87081892     0.38500
O121        O  0.40721879  0.60744621  0.87937410    -1.09800
O122        O  0.32590408  0.58357411  0.88037755    -0.66400
Ni123      Ni  0.36654384  0.59091424  0.85807891     1.26300
O124        O  0.46347814  0.56119373  0.85763192    -0.66600
O125        O  0.34745249  0.64323615  0.85201935    -0.78900
C126        C  0.33480433  0.54712159  0.82057513     0.84500
O127        O  0.32829797  0.57158824  0.83670161    -0.66100
Ni128      Ni  0.39148945  0.63746048  0.90626054     1.27400
Ni129      Ni  0.42808019  0.55547228  0.88490089     1.26100
H130        H  0.36652627  0.52778539  0.87684169     0.39100
O131        O  0.51202863  0.37947976  0.69560906    -0.80900
O132        O  0.53163861  0.48450721  0.60871717    -0.65600
O133        O  0.51227267  0.39664460  0.64805978    -1.12200
C134        C  0.64431791  0.36752098  0.64076251     1.06000
O135        O  0.56420706  0.44523766  0.58442077    -0.78800
O136        O  0.56444751  0.36819927  0.59614756    -0.66400
Ni137      Ni  0.47474326  0.39659277  0.67215705     1.34900
C138        C  0.55700117  0.34010306  0.61012316     0.84700
O139        O  0.46636140  0.45703902  0.62785902    -0.79300
O140        O  0.43455929  0.41326058  0.65023122    -0.89600
C141        C  0.54212278  0.47470217  0.58798064     0.84300
O142        O  0.48397688  0.44905439  0.68277823    -0.67800
O143        O  0.63673585  0.37864342  0.61951334    -0.87100
C144        C  0.50952936  0.47534672  0.67818801     0.85100
C145        C  0.43483902  0.44081610  0.63503122     1.06700
H146        H  0.59065577  0.44770137  0.63968706     0.38500
O147        O  0.57492407  0.42713379  0.63220337    -1.09800
O148        O  0.56293882  0.34281669  0.63214533    -0.66400
Ni149      Ni  0.56676073  0.38572773  0.65399543     1.26300
O150        O  0.52869436  0.47582754  0.65873251    -0.66600
O151        O  0.62169288  0.37531116  0.65778344    -0.78900
C152        C  0.53351182  0.34963103  0.69337764     0.84500
O153        O  0.55594583  0.34595316  0.67609579    -0.66100
Ni154      Ni  0.59875396  0.41240242  0.60332647     1.27400
Ni155      Ni  0.52086597  0.44252878  0.63012918     1.26100
H156        H  0.50199317  0.37733166  0.63694271     0.39100
O157        O  0.98950367  0.40506918  0.81881179    -0.80900
O158        O  0.95469659  0.49785770  0.90655093    -0.65600
O159        O  0.98826855  0.41656862  0.86656519    -1.12200
C160        C  0.85864248  0.36789874  0.87254232     1.06000
O161        O  0.93196361  0.45061175  0.93001356    -0.78800
O162        O  0.93351316  0.37363123  0.91776447    -0.66400
Ni163      Ni  0.02494168  0.42517764  0.84264892     1.34900
C164        C  0.94677843  0.34857761  0.90346790     0.84700
O165        O  0.02497959  0.48244217  0.88880780    -0.79300
O166        O  0.06243450  0.44624571  0.86515315    -0.89600
C167        C  0.94588076  0.48521752  0.92693598     0.84300
O168        O  0.00977533  0.47675923  0.83388796    -0.67800
O169        O  0.86306343  0.38168878  0.89350355    -0.87100
C170        C  0.98073483  0.49800622  0.83885628     0.85100
C171        C  0.05837364  0.47262534  0.88090684     1.06700
H172        H  0.90372309  0.45246274  0.87453216     0.38500
O173        O  0.92181065  0.43457765  0.88215076    -1.09800
O174        O  0.94667371  0.35376220  0.88138820    -0.66400
Ni175      Ni  0.93625860  0.39585279  0.86002752     1.26300
O176        O  0.96081452  0.49291172  0.85769852    -0.66600
O177        O  0.88322252  0.37488714  0.85612123    -0.78900
C178        C  0.97364344  0.37123027  0.81930521     0.84500
O179        O  0.95354936  0.36040358  0.83677627    -0.66100
Ni180      Ni  0.89894395  0.41661689  0.91060022     1.27400
Ni181      Ni  0.97275214  0.45920660  0.88525447     1.26100
H182        H  0.00137783  0.39876179  0.87732239     0.39100
O183        O  0.08671154  0.52945384  0.70400031    -0.80900
O184        O  0.02400621  0.56379001  0.60770389    -0.65600
O185        O  0.09385387  0.52989914  0.65598786    -1.12200
C186        C  0.15186909  0.65454051  0.65139100     1.06000
O187        O  0.07744801  0.58317574  0.58831131    -0.78800
O188        O  0.14881680  0.57133583  0.60999838    -0.66400
Ni189      Ni  0.07839374  0.49286477  0.67864338     1.34900
C190        C  0.17005101  0.56015768  0.62742836     0.84700
O191        O  0.03266746  0.49306535  0.62938575    -0.79300
O192        O  0.06867503  0.45541769  0.65395280    -0.89600
C193        C  0.04130512  0.57216200  0.58844657     0.84300
O194        O  0.02412483  0.50456589  0.67766286    -0.67800
O195        O  0.14616499  0.64664145  0.62938647    -0.87100
C196        C  0.01058965  0.53883973  0.67604807     0.85100
C197        C  0.04377121  0.45924761  0.63696140     1.06700
H198        H  0.06427269  0.61559613  0.64070146     0.38500
O199        O  0.08291388  0.59570956  0.63647974    -1.09800
O200        O  0.16146422  0.56847983  0.64849022    -0.66400
Ni201      Ni  0.11329124  0.58194145  0.66342116     1.26300
O202        O  0.02012053  0.56090194  0.65851129    -0.66600
O203        O  0.13526402  0.63453975  0.66775072    -0.78900
C204        C  0.11900283  0.54759249  0.70792935     0.84500
O205        O  0.13744728  0.56589510  0.69196831    -0.66100
Ni206      Ni  0.11114379  0.61322123  0.61001376     1.27400
Ni207      Ni  0.05672097  0.54546562  0.63314820     1.26100
H208        H  0.11369945  0.51635930  0.64732911     0.39100
O209        O  0.42202981  0.58685299  0.42527769    -0.80900
O210        O  0.45249028  0.65478331  0.32497640    -0.65600
O211        O  0.41779361  0.59292913  0.37647570    -1.12200
C212        C  0.55560641  0.56271401  0.38329849     1.06000
O213        O  0.49310600  0.60781364  0.31408786    -0.78800
O214        O  0.51605951  0.54497615  0.33890085    -0.66400
Ni215      Ni  0.39137765  0.61576678  0.40200479     1.34900
C216        C  0.48301629  0.52770874  0.33907873     0.84700
O217        O  0.38082849  0.64295414  0.34387977    -0.79300
O218        O  0.35757516  0.64566779  0.38080874    -0.89600
C219        C  0.47305551  0.63816310  0.30941938     0.84300
O220        O  0.42526085  0.66109197  0.40662142    -0.67800
O221        O  0.56051793  0.58956093  0.36787401    -0.87100
C222        C  0.43788643  0.68449006  0.39090774     0.85100
C223        C  0.35502619  0.65364279  0.35871770     1.06700
H224        H  0.49600899  0.63173759  0.37220635     0.38500
O225        O  0.48530433  0.61099807  0.36221134    -1.09800
O226        O  0.45893453  0.53434536  0.35588347    -0.66400
Ni227      Ni  0.46871663  0.57116693  0.38291737     1.26300
O228        O  0.44017974  0.67424895  0.36943324    -0.66600
O229        O  0.52137475  0.55028981  0.38915548    -0.78900
C230        C  0.43835693  0.55307054  0.42584899     0.84500
O231        O  0.44903328  0.53634771  0.40674525    -0.66100
Ni232      Ni  0.52596354  0.59973633  0.34150122     1.27400
Ni233      Ni  0.43373927  0.62636981  0.35162215     1.26100
H234        H  0.40066016  0.57265054  0.36986269     0.39100
O235        O  0.56763986  0.45770648  0.08275490    -0.80900
O236        O  0.63950768  0.46460787  0.18447796    -0.65600
O237        O  0.57623102  0.44243008  0.13046541    -1.12200
C238        C  0.54810373  0.58046609  0.13681870     1.06000
O239        O  0.59261423  0.50174518  0.19901080    -0.78800
O240        O  0.52970374  0.53195250  0.17697164    -0.66400
Ni241      Ni  0.59961648  0.42389532  0.10262504     1.34900
C242        C  0.51218693  0.49936332  0.17353112     0.84700
O243        O  0.62604375  0.39873706  0.15918331    -0.79300
O244        O  0.63259948  0.38726937  0.12029188    -0.89600
C245        C  0.62466094  0.48356400  0.20132983     0.84300
O246        O  0.64138821  0.46267276  0.10182767    -0.67800
O247        O  0.57532405  0.58138085  0.15263954    -0.87100
C248        C  0.66516529  0.47189743  0.11862597     0.85100
C249        C  0.63897832  0.37841540  0.14205352     1.06700
H250        H  0.61528477  0.51874872  0.14243951     0.38500
O251        O  0.59532621  0.50596664  0.15118455    -1.09800
O252        O  0.51896193  0.47874706  0.15501496    -0.66400
Ni253      Ni  0.55477952  0.49428855  0.12939125     1.26300
O254        O  0.65797031  0.46309788  0.13987405    -0.66600
O255        O  0.53443784  0.54785714  0.12830036    -0.78900
C256        C  0.53426701  0.47413209  0.08481659     0.84500
O257        O  0.51866047  0.48006826  0.10477168    -0.66100
Ni258      Ni  0.58470420  0.54126212  0.17559607     1.27400
Ni259      Ni  0.61024644  0.45244882  0.15659706     1.26100
H260        H  0.55617829  0.42366585  0.13500525     0.39100
O261        O  0.59406949  0.07562594  0.43938091    -0.80900
O262        O  0.66844429  0.04072430  0.34439481    -0.65600
O263        O  0.60310766  0.08106426  0.39104638    -1.12200
C264        C  0.55735604  0.94727853  0.39352312     1.06000
O265        O  0.62020994  0.00501623  0.32766442    -0.78800
O266        O  0.55007650  0.99110526  0.34596446    -0.66400
Ni267      Ni  0.62432561  0.10760710  0.41798487     1.34900
C268        C  0.53350618  0.02370438  0.34952944     0.84700
O269        O  0.66098516  0.11304244  0.36264366    -0.79300
O270        O  0.65530941  0.14198823  0.39830716    -0.89600
C271        C  0.65218438  0.02444729  0.32654006     0.84300
O272        O  0.67000053  0.07625325  0.42445521    -0.67800
O273        O  0.58226279  0.94032168  0.37760091    -0.87100
C274        C  0.69104100  0.05702970  0.41036754     0.85100
C275        C  0.66804837  0.14135593  0.37717867     1.06700
H276        H  0.63291269  0.99900280  0.38688549     0.38500
O277        O  0.61490727  0.01220303  0.37626030    -1.09800
O278        O  0.54117798  0.04492817  0.36802170    -0.66400
Ni279      Ni  0.57565218  0.03231605  0.39561725     1.26300
O280        O  0.68129336  0.05066811  0.38900877    -0.66600
O281        O  0.54896754  0.98210932  0.40016824    -0.78900
C282        C  0.55812591  0.06422403  0.43809354     0.84500
O283        O  0.54166836  0.05504012  0.41823365    -0.66100
Ni284      Ni  0.60172663  0.97381498  0.35336216     1.27400
Ni285      Ni  0.63779186  0.06195468  0.36840937     1.26100
H286        H  0.58556521  0.09922256  0.38319824     0.39100
O287        O  0.41282517  0.94357509  0.09571403    -0.80900
O288        O  0.45731934  0.84274223  0.18270304    -0.65600
O289        O  0.41946835  0.92427091  0.14360709    -1.12200
C290        C  0.54993313  0.96916465  0.13995950     1.06000
O291        O  0.52159761  0.85612441  0.18657327    -0.78800
O292        O  0.49545766  0.93257487  0.19265488    -0.66400
Ni293      Ni  0.38502938  0.91042937  0.11767345     1.34900
C294        C  0.47952661  0.96527591  0.18742921     0.84700
O295        O  0.38578527  0.86730091  0.17202172    -0.79300
O296        O  0.35342608  0.87634097  0.13739722    -0.89600
C297        C  0.49178761  0.83396806  0.18942423     0.84300
O298        O  0.41330317  0.86602101  0.10586180    -0.67800
O299        O  0.55000047  0.95694482  0.16109772    -0.87100
C300        C  0.42903098  0.83885880  0.11796375     0.85100
C301        C  0.35565689  0.86227474  0.15834164     1.06700
H302        H  0.49772234  0.88034300  0.13932835     0.38500
O303        O  0.48911484  0.89864266  0.15115035    -1.09800
O304        O  0.47163405  0.97553330  0.16569508    -0.66400
Ni305      Ni  0.47001171  0.94387793  0.13560755     1.26300
O306        O  0.43603826  0.84194267  0.13986499    -0.66600
O307        O  0.52108555  0.96155976  0.12617210    -0.78900
C308        C  0.43293190  0.97540761  0.09768091     0.84500
O309        O  0.44841067  0.98586113  0.11747540    -0.66100
Ni310      Ni  0.53153409  0.90679235  0.17307390     1.27400
Ni311      Ni  0.43792026  0.88288656  0.16286828     1.26100
H312        H  0.40635363  0.94320843  0.15333256     0.39100
O313        O  0.06260671  0.60246499  0.08706993    -0.80900
O314        O  0.04055675  0.66143112  0.19036739    -0.65600
O315        O  0.07053376  0.60557232  0.13589762    -1.12200
C316        C  0.93197540  0.58229068  0.12759855     1.06000
O317        O  0.99594324  0.61528861  0.19925894    -0.78800
O318        O  0.96892752  0.55656109  0.17123491    -0.66400
Ni319      Ni  0.09384182  0.63182231  0.11033427     1.34900
C320        C  0.00191688  0.54009128  0.17222735     0.84700
O321        O  0.11108595  0.65153552  0.16926790    -0.79300
O322        O  0.12824795  0.66214051  0.13157546    -0.89600
C323        C  0.01920686  0.64335722  0.20518539     0.84300
O324        O  0.05633838  0.67370577  0.10843447    -0.67800
O325        O  0.92854161  0.60742213  0.14421951    -0.87100
C326        C  0.04688746  0.69634338  0.12520015     0.85100
C327        C  0.13473725  0.66553612  0.15390025     1.06700
H328        H  0.99466144  0.64541279  0.14217083     0.38500
O329        O  0.00442748  0.62386299  0.15157394    -1.09800
O330        O  0.02704587  0.54727332  0.15607626    -0.66400
Ni331      Ni  0.01866473  0.58524837  0.12984738     1.26300
O332        O  0.05158743  0.68687382  0.14674290    -0.66600
O333        O  0.96506405  0.56670625  0.12304168    -0.78900
C334        C  0.04536937  0.56876909  0.08687794     0.84500
O335        O  0.03626548  0.55098609  0.10585638    -0.66100
Ni336      Ni  0.96280197  0.61201313  0.17151240     1.27400
Ni337      Ni  0.05702649  0.63669670  0.16215382     1.26100
H338        H  0.08764568  0.58468456  0.14110742     0.39100
O339        O  0.92573111  0.45433768  0.43002801    -0.80900
O340        O  0.82749358  0.47510524  0.33941749    -0.65600
O341        O  0.90915367  0.44634248  0.38163904    -1.12200
C342        C  0.93918403  0.58510316  0.37859787     1.06000
O343        O  0.86664449  0.51287699  0.31830015    -0.78800
O344        O  0.94043697  0.53257664  0.33054077    -0.66400
Ni345      Ni  0.89616280  0.41818882  0.40975080     1.34900
C346        C  0.96550218  0.50735570  0.33711979     0.84700
O347        O  0.84925729  0.40566831  0.35669336    -0.79300
O348        O  0.86578552  0.37924679  0.39180532    -0.89600
C349        C  0.83383143  0.49596891  0.32152202     0.84300
O350        O  0.84822862  0.44405655  0.41823112    -0.67800
O351        O  0.91402866  0.58672276  0.36169953    -0.87100
C352        C  0.82278354  0.46093260  0.40515396     0.85100
C353        C  0.84828683  0.37741050  0.37154589     1.06700
H354        H  0.86800537  0.52467924  0.37657733     0.38500
O355        O  0.88582227  0.51215913  0.36594575    -1.09800
O356        O  0.96449635  0.49007170  0.35739701    -0.66400
Ni357      Ni  0.93011433  0.49902224  0.38474150     1.26300
O358        O  0.82784494  0.46741167  0.38348062    -0.66600
O359        O  0.94961843  0.55258951  0.38802293    -0.78900
C360        C  0.95702629  0.47487678  0.42736960     0.84500
O361        O  0.96971861  0.48364159  0.40698374    -0.66100
Ni362      Ni  0.89047673  0.54839067  0.34085554     1.27400
Ni363      Ni  0.86733223  0.45932262  0.36063784     1.26100
H364        H  0.92753814  0.43052036  0.37313612     0.39100
O365        O  0.08968040  0.94190442  0.42685059    -0.80900
O366        O  0.05382153  0.84385533  0.33573542    -0.65600
O367        O  0.08727768  0.92503474  0.37789684    -1.12200
C368        C  0.95581894  0.96295074  0.37872524     1.06000
O369        O  0.99096789  0.85873933  0.32792873    -0.78800
O370        O  0.01662019  0.93548414  0.32668861    -0.66400
Ni371      Ni  0.11911441  0.91030595  0.40480267     1.34900
C372        C  0.03047246  0.96845810  0.33375134     0.84700
O373        O  0.12420090  0.87070418  0.34936506    -0.79300
O374        O  0.15190922  0.87682962  0.38555043    -0.89600
C375        C  0.02044909  0.83662386  0.32626410     0.84300
O376        O  0.08853891  0.86544713  0.41453566    -0.67800
O377        O  0.95839489  0.95410762  0.35710038    -0.87100
C378        C  0.07486241  0.83830802  0.40123358     0.85100
C379        C  0.15218234  0.86401996  0.36423468     1.06700
H380        H  0.00875653  0.87757737  0.37763306     0.38500
O381        O  0.01872053  0.89719217  0.36690267    -1.09800
O382        O  0.03570615  0.97673678  0.35608663    -0.66400
Ni383      Ni  0.03557200  0.94158855  0.38475526     1.26300
O384        O  0.07129819  0.84197481  0.37912632    -0.66600
O385        O  0.98355581  0.95531418  0.39307647    -0.78900
C386        C  0.06665986  0.97128830  0.42536010     0.84500
O387        O  0.05395431  0.98275673  0.40523839    -0.66100
Ni388      Ni  0.97881218  0.90650830  0.34356166     1.27400
Ni389      Ni  0.07116072  0.88394890  0.35694899     1.26100
H390        H  0.10097362  0.94523302  0.36920357     0.39100
O391        O  0.91271695  0.08872475  0.08217230    -0.80900
O392        O  0.82219416  0.07652537  0.17483312    -0.65600
O393        O  0.90012365  0.09775865  0.13033816    -1.12200
C394        C  0.91782780  0.95752519  0.13352622     1.06000
O395        O  0.85698398  0.03262301  0.19448389    -0.78800
O396        O  0.92715228  0.00829720  0.18144098    -0.66400
Ni397      Ni  0.88357893  0.12373991  0.10188442     1.34900
C398        C  0.95380845  0.03216605  0.17506411     0.84700
O399        O  0.84922330  0.14282687  0.15670385    -0.79300
O400        O  0.85278124  0.16179888  0.11894936    -0.89600
C401        C  0.82679101  0.05380083  0.19211431     0.84300
O402        O  0.83691525  0.09285811  0.09468843    -0.67800
O403        O  0.89290935  0.95691173  0.15000715    -0.87100
C404        C  0.81064657  0.08313086  0.10917686     0.85100
C405        C  0.84217000  0.16747884  0.14021606     1.06700
H406        H  0.85190979  0.02347575  0.13610347     0.38500
O407        O  0.87206132  0.03398026  0.14668632    -1.09800
O408        O  0.95272926  0.05043764  0.15506784    -0.66400
Ni409      Ni  0.91593381  0.04393379  0.12760216     1.26300
O410        O  0.81650237  0.08400516  0.13123741    -0.66600
O411        O  0.93046441  0.98949750  0.12453445    -0.78900
C412        C  0.94262144  0.06682848  0.08491840     0.84500
O413        O  0.95551968  0.05662059  0.10532077    -0.66100
Ni414      Ni  0.87497087  0.99641516  0.17127064     1.27400
Ni415      Ni  0.86049588  0.08820839  0.15258035     1.26100
H416        H  0.92105819  0.11315334  0.13775724     0.39100
C417        C  0.03331171  0.99820553  0.31444912    -0.12000
C418        C  0.06543339  0.99931818  0.29909070     0.03500
C419        C  0.06061246  0.01297100  0.27558508    -0.12500
C420        C  0.02357315  0.02482747  0.26661002     0.18400
C421        C  0.99175765  0.02435223  0.28224613    -0.09500
C422        C  0.99725303  0.01254654  0.30582299    -0.02500
H423        H  0.08537731  0.01227135  0.26391437     0.04900
C424        C  0.01686971  0.03244535  0.24056797     0.20300
H425        H  0.97177418  0.00982404  0.31671654     0.10100
C426        C  0.02186114  0.00164986  0.22434086    -0.15900
C427        C  0.00676077  0.00401518  0.20102743     0.03100
C428        C  0.98594773  0.03750374  0.19325468    -0.11200
C429        C  0.98481130  0.06999387  0.20868224    -0.01200
C430        C  0.00057426  0.06788913  0.23195327    -0.06400
H431        H  0.03485935  0.97439094  0.23029824     0.06100
H432        H  0.96860829  0.09586150  0.20339611     0.09500
Br433      Br  0.93845347  0.03213542  0.27144958    -0.06100
Br434      Br  0.11535280  0.97902044  0.30902051    -0.03000
Br435      Br  0.01059048  0.95855577  0.18108008    -0.00200
Br436      Br  0.99722758  0.11338022  0.25190014    -0.04600
C437        C  0.95756237  0.62279556  0.38738336    -0.12000
C438        C  0.95343819  0.65902831  0.37504441     0.03500
C439        C  0.97403029  0.69258405  0.38294363    -0.12500
C440        C  0.99807762  0.69169862  0.40326502     0.18400
C441        C  0.00045129  0.65686412  0.41644546    -0.09500
C442        C  0.98079123  0.62270400  0.40835997    -0.02500
H443        H  0.97190608  0.71956517  0.37283891     0.04900
C444        C  0.02242235  0.72688887  0.40912012     0.20300
H445        H  0.98393494  0.59596275  0.41853380     0.10100
C446        C  0.00524439  0.75947010  0.41991993    -0.15900
C447        C  0.02492071  0.79599333  0.42077791     0.03100
C448        C  0.06202394  0.80012510  0.41054387    -0.11200
C449        C  0.08045537  0.76671963  0.40160902    -0.01200
C450        C  0.06093689  0.73034618  0.40073700    -0.06400
H451        H  0.97552796  0.75711825  0.42628827     0.06100
H452        H  0.10860330  0.76979311  0.39314903     0.09500
Br453      Br  0.03004772  0.65515784  0.44561460    -0.06100
Br454      Br  0.92140373  0.66614823  0.34696123    -0.03000
Br455      Br  0.99800603  0.84064640  0.43294847    -0.00200
Br456      Br  0.08613812  0.68758778  0.38522295    -0.04600
C457        C  0.02931794  0.73498835  0.12013336    -0.12000
C458        C  0.04409528  0.76920962  0.13148016     0.03500
C459        C  0.02370320  0.80446411  0.12955984    -0.12500
C460        C  0.98840878  0.80655402  0.11643118     0.18400
C461        C  0.97461908  0.77294297  0.10396466    -0.09500
C462        C  0.99508279  0.73741990  0.10591794    -0.02500
H463        H  0.03497693  0.83025981  0.13887325     0.04900
C464        C  0.96638677  0.84392200  0.11705729     0.20300
H465        H  0.98346683  0.71136392  0.09703698     0.10100
C466        C  0.98341010  0.87806004  0.10760841    -0.15900
C467        C  0.96744014  0.91527972  0.11156840     0.03100
C468        C  0.93334239  0.91889006  0.12539159    -0.11200
C469        C  0.91535890  0.88409771  0.13370815    -0.01200
C470        C  0.93176791  0.84716257  0.12999669    -0.06400
H471        H  0.01037520  0.87585983  0.09789323     0.06100
H472        H  0.88923624  0.88555293  0.14423633     0.09500
Br473      Br  0.92817587  0.77423777  0.08418743    -0.06100
Br474      Br  0.09240650  0.76961399  0.14958096    -0.03000
Br475      Br  0.99593467  0.95923203  0.09876060    -0.00200
Br476      Br  0.90807210  0.80272909  0.14531172    -0.04600
C477        C  0.01512534  0.80010136  0.31307887    -0.12000
C478        C  0.99915070  0.80014072  0.28998200     0.03500
C479        C  0.99585369  0.76489835  0.27760676    -0.12500
C480        C  0.00787197  0.72961388  0.28807601     0.18400
C481        C  0.02127882  0.72906086  0.31162357    -0.09500
C482        C  0.02523846  0.76444983  0.32401418    -0.02500
H483        H  0.98582025  0.76524001  0.25930328     0.04900
C484        C  0.01262193  0.69598718  0.27245779     0.20300
H485        H  0.03623944  0.76420760  0.34212812     0.10100
C486        C  0.04972374  0.69081258  0.26275244    -0.15900
C487        C  0.05332124  0.67055225  0.24153434     0.03100
C488        C  0.01920022  0.65615135  0.22980934    -0.11200
C489        C  0.98304975  0.65669092  0.24129404    -0.01200
C490        C  0.97962718  0.67649898  0.26261986    -0.06400
H491        H  0.07542699  0.70503128  0.27076026     0.06100
H492        H  0.95681628  0.64417743  0.23290344     0.09500
Br493      Br  0.03415169  0.68064789  0.32703932    -0.06100
Br494      Br  0.98485104  0.84767476  0.27380329    -0.03000
Br495      Br  0.10504256  0.66277577  0.22969518    -0.00200
Br496      Br  0.92900977  0.67923531  0.27665710    -0.04600
C497        C  0.01031656  0.51656486  0.19428938    -0.12000
C498        C  0.97875506  0.50005605  0.20715960     0.03500
C499        C  0.98316216  0.49177275  0.23136292    -0.12500
C500        C  0.01895275  0.49831186  0.24362381     0.18400
C501        C  0.05193248  0.50950045  0.23017303    -0.09500
C502        C  0.04732313  0.51921382  0.20592617    -0.02500
H503        H  0.95767473  0.48188436  0.24095656     0.04900
C504        C  0.01902985  0.49653189  0.27035827     0.20300
H505        H  0.07225160  0.53110526  0.19661241     0.10100
C506        C  0.00500428  0.46242402  0.28185091    -0.15900
C507        C  0.99352527  0.46329626  0.30572409     0.03100
C508        C  0.99518485  0.49881459  0.31867075    -0.11200
C509        C  0.01340955  0.53151023  0.30801230    -0.01200
C510        C  0.02493045  0.53079969  0.28429776    -0.06400
H511        H  0.00029404  0.43563554  0.27173687     0.06100
H512        H  0.01452128  0.55936061  0.31737995     0.09500
Br513      Br  0.10379032  0.51158541  0.24407543    -0.06100
Br514      Br  0.92771211  0.48978268  0.19302121    -0.03000
Br515      Br  0.97090267  0.41666414  0.31901721    -0.00200
Br516      Br  0.04218248  0.57980676  0.27117580    -0.04600
C517        C  0.32290834  0.83595542  0.16588391    -0.12000
C518        C  0.28307007  0.84565304  0.16196859     0.03500
C519        C  0.25332432  0.81696778  0.16464023    -0.12500
C520        C  0.26239537  0.77809634  0.17102228     0.18400
C521        C  0.30212319  0.76895027  0.17598407    -0.09500
C522        C  0.33177430  0.79774828  0.17359609    -0.02500
H523        H  0.22310830  0.82461173  0.16062909     0.04900
C524        C  0.23113244  0.74666444  0.16929236     0.20300
H525        H  0.36217785  0.78952244  0.17642153     0.10100
C526        C  0.23465783  0.71716099  0.15214156    -0.15900
C527        C  0.20493894  0.68885229  0.14816194     0.03100
C528        C  0.17013183  0.68942273  0.16139242    -0.11200
C529        C  0.16734079  0.71781690  0.17940354    -0.01200
C530        C  0.19712817  0.74654995  0.18319057    -0.06400
H531        H  0.26044049  0.71673904  0.14125690     0.06100
H532        H  0.14086833  0.71921980  0.18962138     0.09500
Br533      Br  0.31765272  0.71705072  0.18524909    -0.06100
Br534      Br  0.26789173  0.89759962  0.15261018    -0.03000
Br535      Br  0.21398787  0.65005086  0.12425321    -0.00200
Br536      Br  0.18954644  0.78557130  0.20709854    -0.04600
C537        C  0.58430538  0.99221805  0.13113571    -0.12000
C538        C  0.60921532  0.01512380  0.14624805     0.03500
C539        C  0.64277796  0.03362383  0.13738041    -0.12500
C540        C  0.65314896  0.02944111  0.11369345     0.18400
C541        C  0.62815526  0.00737030  0.09843138    -0.09500
C542        C  0.59388070  0.98951845  0.10707868    -0.02500
H543        H  0.66155387  0.05062580  0.14929953     0.04900
C544        C  0.69201199  0.04509419  0.10618587     0.20300
H545        H  0.57541623  0.97221839  0.09506144     0.10100
C546        C  0.72177779  0.01840453  0.10084828    -0.15900
C547        C  0.76087362  0.03115477  0.09859233     0.03100
C548        C  0.77070600  0.07123937  0.10139629    -0.11200
C549        C  0.74056366  0.09828274  0.10492690    -0.01200
C550        C  0.70155146  0.08557961  0.10745821    -0.06400
H551        H  0.71507676  0.98717617  0.10011341     0.06100
H552        H  0.74791107  0.12907131  0.10782743     0.09500
Br553      Br  0.64004035  0.00058028  0.06573481    -0.06100
Br554      Br  0.59966166  0.02305920  0.17916060    -0.03000
Br555      Br  0.80064958  0.99236802  0.09470472    -0.00200
Br556      Br  0.66306826  0.12439568  0.11446715    -0.04600
C557        C  0.82457475  0.34092627  0.36588464    -0.12000
C558        C  0.79024086  0.34108106  0.35115989     0.03500
C559        C  0.76592432  0.30737740  0.34944659    -0.12500
C560        C  0.77429473  0.27329700  0.36249539     0.18400
C561        C  0.80910691  0.27251021  0.37641833    -0.09500
C562        C  0.83379858  0.30583388  0.37788890    -0.02500
H563        H  0.73916833  0.30841918  0.33874543     0.04900
C564        C  0.74482869  0.24040552  0.36329392     0.20300
H565        H  0.85968759  0.30470314  0.38932980     0.10100
C566        C  0.75450937  0.20270798  0.35516492    -0.15900
C567        C  0.72936927  0.17018855  0.35869425     0.03100
C568        C  0.69305655  0.17526450  0.36990331    -0.11200
C569        C  0.68285190  0.21326747  0.37717556    -0.01200
C570        C  0.70828476  0.24550916  0.37409753    -0.06400
H571        H  0.78269651  0.19820794  0.34712865     0.06100
H572        H  0.65548275  0.21768655  0.38617222     0.09500
Br573      Br  0.82249429  0.22785957  0.39556365    -0.06100
Br574      Br  0.77182913  0.38715630  0.33495672    -0.03000
Br575      Br  0.74865467  0.11906999  0.35081165    -0.00200
Br576      Br  0.69322055  0.29516134  0.38707906    -0.04600
C577        C  0.73031967  0.04357142  0.41773407    -0.12000
C578        C  0.73993641  0.00352737  0.41585735     0.03500
C579        C  0.77919312  0.99260047  0.41389231    -0.12500
C580        C  0.80919023  0.02121286  0.41352439     0.18400
C581        C  0.79999056  0.06094335  0.41721981    -0.09500
C582        C  0.76070640  0.07185104  0.41951941    -0.02500
H583        H  0.78608811  0.96194816  0.41104094     0.04900
C584        C  0.84838731  0.00966109  0.40555568     0.20300
H585        H  0.75368481  0.10281694  0.42041352     0.10100
C586        C  0.85707519  0.01460081  0.38170253    -0.15900
C587        C  0.89215570  0.00084668  0.37257838     0.03100
C588        C  0.91972247  0.98172306  0.38759592    -0.11200
C589        C  0.91125381  0.97814517  0.41178311    -0.01200
C590        C  0.87583583  0.99163732  0.42072179    -0.06400
H591        H  0.83589029  0.02855193  0.36996670     0.06100
H592        H  0.93165940  0.96362650  0.42373814     0.09500
Br593      Br  0.83985928  0.10136061  0.41699458    -0.06100
Br594      Br  0.70014725  0.96312583  0.41389926    -0.03000
Br595      Br  0.89951491  0.00972278  0.33953794    -0.00200
Br596      Br  0.86559541  0.98425326  0.45357415    -0.04600
C597        C  0.66978913  0.03042521  0.30376031    -0.12000
C598        C  0.67472494  0.99906183  0.28788351     0.03500
C599        C  0.69622265  0.00547897  0.26763203    -0.12500
C600        C  0.71226137  0.04274595  0.26319331     0.18400
C601        C  0.70465167  0.07466017  0.27799559    -0.09500
C602        C  0.68367659  0.06825996  0.29835407    -0.02500
H603        H  0.70232955  0.98100547  0.25603924     0.04900
C604        C  0.74137950  0.04660732  0.24509296     0.20300
H605        H  0.67904774  0.09263552  0.31029981     0.10100
C606        C  0.72902575  0.05227502  0.22173182    -0.15900
C607        C  0.75660961  0.05603948  0.20413541     0.03100
C608        C  0.79701146  0.05284383  0.21009739    -0.11200
C609        C  0.80908898  0.04729810  0.23361243    -0.01200
C610        C  0.78152440  0.04469839  0.25120388    -0.06400
H611        H  0.69795231  0.05392373  0.21726332     0.06100
H612        H  0.84003832  0.04534793  0.23833997     0.09500
Br613      Br  0.72452639  0.12662000  0.27172153    -0.06100
Br614      Br  0.65671494  0.94638428  0.29414832    -0.03000
Br615      Br  0.73690254  0.06398311  0.17246801    -0.00200
Br616      Br  0.79999671  0.03882653  0.28328875    -0.04600
C617        C  0.47705489  0.99303362  0.20790248    -0.12000
C618        C  0.44215942  0.00066556  0.22005058     0.03500
C619        C  0.44402286  0.01686709  0.24318697    -0.12500
C620        C  0.48044549  0.02522562  0.25485148     0.18400
C621        C  0.51508514  0.01785883  0.24231894    -0.09500
C622        C  0.51295883  0.00274053  0.21929407    -0.02500
H623        H  0.41698809  0.02105319  0.25255464     0.04900
C624        C  0.48264716  0.03455093  0.28097821     0.20300
H625        H  0.54007445  0.99491639  0.21097463     0.10100
C626        C  0.46718167  0.00709731  0.29689052    -0.15900
C627        C  0.47834935  0.00769362  0.32094661     0.03100
C628        C  0.50609280  0.03563417  0.32982661    -0.11200
C629        C  0.51733549  0.06636837  0.31460869    -0.01200
C630        C  0.50505840  0.06648993  0.29054649    -0.06400
H631        H  0.44892767  0.98297685  0.29028029     0.06100
H632        H  0.53847210  0.08837018  0.32080303     0.09500
Br633      Br  0.56668901  0.02098177  0.25680102    -0.06100
Br634      Br  0.39189021  0.98585740  0.20667232    -0.03000
Br635      Br  0.45899199  0.96618176  0.34053440    -0.00200
Br636      Br  0.52108342  0.10977489  0.27108490    -0.04600
C637        C  0.81735372  0.20234007  0.14530009    -0.12000
C638        C  0.81701444  0.23617525  0.13071266     0.03500
C639        C  0.78779342  0.26452041  0.13323991    -0.12500
C640        C  0.75902159  0.26054677  0.15043975     0.18400
C641        C  0.76088142  0.22854469  0.16610268    -0.09500
C642        C  0.78966200  0.19975055  0.16342336    -0.02500
H643        H  0.78714874  0.28959366  0.12145605     0.04900
C644        C  0.72623713  0.28897744  0.15082576     0.20300
H645        H  0.78921197  0.17437958  0.17496773     0.10100
C646        C  0.69221901  0.28127785  0.13702406    -0.15900
C647        C  0.66212324  0.30899585  0.13517484     0.03100
C648        C  0.66577999  0.34527849  0.14721750    -0.11200
C649        C  0.69894651  0.35204455  0.16199981    -0.01200
C650        C  0.72908909  0.32433151  0.16377689    -0.06400
H651        H  0.68942213  0.25387561  0.12728694     0.06100
H652        H  0.70239175  0.37983646  0.17127192     0.09500
Br653      Br  0.72397260  0.22269093  0.19099056    -0.06100
Br654      Br  0.85596768  0.24620047  0.10735192    -0.03000
Br655      Br  0.61621816  0.29566276  0.11641571    -0.00200
Br656      Br  0.77433519  0.33648595  0.18333635    -0.04600
C657        C  0.70304103  0.49267924  0.11368592    -0.12000
C658        C  0.72401831  0.51412592  0.13152791     0.03500
C659        C  0.76099475  0.53019362  0.12699878    -0.12500
C660        C  0.77796757  0.52667142  0.10482775     0.18400
C661        C  0.75677827  0.50697459  0.08662537    -0.09500
C662        C  0.71964678  0.49015963  0.09112079    -0.02500
H663        H  0.77689389  0.54565224  0.14106803     0.04900
C664        C  0.81842672  0.54287592  0.10222743     0.20300
H665        H  0.70409570  0.47448862  0.07702796     0.10100
C666        C  0.85019993  0.51704749  0.10136128    -0.15900
C667        C  0.88866659  0.53012380  0.10692466     0.03100
C668        C  0.89538545  0.56941600  0.11458066    -0.11200
C669        C  0.86412191  0.59599508  0.11263654    -0.01200
C670        C  0.82616327  0.58314653  0.10612470    -0.06400
H671        H  0.84474401  0.48605620  0.09796008     0.06100
H672        H  0.86880037  0.62666038  0.11727926     0.09500
Br673      Br  0.77704198  0.50330778  0.05540890    -0.06100
Br674      Br  0.70420644  0.52485470  0.16238961    -0.03000
Br675      Br  0.92954002  0.49184009  0.10568785    -0.00200
Br676      Br  0.78500481  0.62110359  0.10405068    -0.04600
C677        C  0.64677547  0.48821997  0.22313018    -0.12000
C678        C  0.65839232  0.45573145  0.23662408     0.03500
C679        C  0.68573248  0.46133878  0.25493491    -0.12500
C680        C  0.70189190  0.49886622  0.25933753     0.18400
C681        C  0.68863435  0.53162614  0.24655954    -0.09500
C682        C  0.66050609  0.52611896  0.22875334    -0.02500
H683        H  0.69606495  0.43617474  0.26490319     0.04900
C684        C  0.73637061  0.50189245  0.27477008     0.20300
H685        H  0.65159231  0.55103179  0.21806768     0.10100
C686        C  0.77120373  0.48505054  0.26705019    -0.15900
C687        C  0.80424253  0.48427218  0.28183559     0.03100
C688        C  0.80210418  0.50044157  0.30451634    -0.11200
C689        C  0.76757670  0.51812934  0.31207175    -0.01200
C690        C  0.73461672  0.51925777  0.29718666    -0.06400
H691        H  0.77227051  0.47162526  0.24970102     0.06100
H692        H  0.76611413  0.53037103  0.32971939     0.09500
Br693      Br  0.71128955  0.58327698  0.25068409    -0.06100
Br694      Br  0.63866881  0.40359138  0.23012176    -0.03000
Br695      Br  0.85020362  0.45794285  0.27123276    -0.00200
Br696      Br  0.68770810  0.54334932  0.30826945    -0.04600
C697        C  0.43959766  0.80100715  0.10743525    -0.12000
C698        C  0.47777446  0.79547715  0.09909132     0.03500
C699        C  0.49407155  0.75779024  0.09931140    -0.12500
C700        C  0.47250046  0.72528879  0.10753444     0.18400
C701        C  0.43302564  0.73031858  0.11372489    -0.09500
C702        C  0.41692564  0.76798485  0.11365841    -0.02500
H703        H  0.52449761  0.75427437  0.09458405     0.04900
C704        C  0.49337897  0.68861716  0.11373847     0.20300
H705        H  0.38786699  0.77196721  0.12068735     0.10100
C706        C  0.51426369  0.68738601  0.13527391    -0.15900
C707        C  0.53291882  0.65311020  0.14288293     0.03100
C708        C  0.53062565  0.61845643  0.12880457    -0.11200
C709        C  0.50962564  0.62006071  0.10707226    -0.01200
C710        C  0.49161063  0.65485384  0.09938405    -0.06400
H711        H  0.51544746  0.71326955  0.14650314     0.06100
H712        H  0.50706088  0.59417183  0.09596908     0.09500
Br713      Br  0.40159272  0.68750797  0.12523407    -0.06100
Br714      Br  0.51016370  0.83929572  0.09010220    -0.03000
Br715      Br  0.55861908  0.65623694  0.17341246    -0.00200
Br716      Br  0.46519534  0.65532386  0.06914735    -0.04600
C717        C  0.18459950  0.83700957  0.35737037    -0.12000
C718        C  0.22208348  0.83775082  0.36880516     0.03500
C719        C  0.24881607  0.80728436  0.36505402    -0.12500
C720        C  0.23948994  0.77574562  0.34978962     0.18400
C721        C  0.20321548  0.77603495  0.33732897    -0.09500
C722        C  0.17627821  0.80634479  0.34111254    -0.02500
H723        H  0.27686219  0.80781473  0.37449449     0.04900
C724        C  0.26703907  0.74195249  0.34821419     0.20300
H725        H  0.14795748  0.80488504  0.33201487     0.10100
C726        C  0.25701167  0.70587770  0.35872314    -0.15900
C727        C  0.28409226  0.67506485  0.36022551     0.03100
C728        C  0.32217937  0.67980085  0.35112820    -0.11200
C729        C  0.33084373  0.71459978  0.33879142    -0.01200
C730        C  0.30399036  0.74569332  0.33760063    -0.06400
H731        H  0.22842573  0.70213479  0.36652568     0.06100
H732        H  0.35947919  0.71862623  0.33126138     0.09500
Br733      Br  0.18927904  0.73532043  0.31506841    -0.06100
Br734      Br  0.23917012  0.87990735  0.38935810    -0.03000
Br735      Br  0.26767412  0.62683893  0.37478001    -0.00200
Br736      Br  0.31945173  0.79326544  0.32198806    -0.04600
C737        C  0.59149308  0.54299224  0.39260010    -0.12000
C738        C  0.60289219  0.54287525  0.41671018     0.03500
C739        C  0.63959401  0.52740359  0.42377304    -0.12500
C740        C  0.66471134  0.51080449  0.40714017     0.18400
C741        C  0.65201333  0.50879681  0.38332008    -0.09500
C742        C  0.61623176  0.52538727  0.37621625    -0.02500
H743        H  0.64883365  0.52892031  0.44218008     0.04900
C744        C  0.70515473  0.49795390  0.41398463     0.20300
H745        H  0.60775859  0.52477393  0.35766366     0.10100
C746        C  0.71383496  0.45763832  0.41439633    -0.15900
C747        C  0.75293565  0.44483604  0.41454256     0.03100
C748        C  0.78418933  0.47246939  0.41426867    -0.11200
C749        C  0.77553627  0.51265732  0.41572214    -0.01200
C750        C  0.73648040  0.52547154  0.41578392    -0.06400
H751        H  0.69015587  0.43611595  0.41282226     0.06100
H752        H  0.79915894  0.53428046  0.41498886     0.09500
Br753      Br  0.68326845  0.48441187  0.35973100    -0.06100
Br754      Br  0.57041663  0.56551082  0.44023926    -0.03000
Br755      Br  0.76225666  0.38947525  0.41189140    -0.00200
Br756      Br  0.72736586  0.58101608  0.41556234    -0.04600
C757        C  0.53726261  0.91261138  0.40393027    -0.12000
C758        C  0.49643592  0.91140642  0.40807031     0.03500
C759        C  0.47763543  0.87516332  0.41232534    -0.12500
C760        C  0.49892491  0.84003949  0.41284853     0.18400
C761        C  0.53997713  0.84176569  0.41060975    -0.09500
C762        C  0.55871802  0.87773790  0.40632386    -0.02500
H763        H  0.44591445  0.87400827  0.41355155     0.04900
C764        C  0.47790107  0.80202908  0.40936052     0.20300
H765        H  0.59006564  0.87802311  0.40334623     0.10100
C766        C  0.46360265  0.79370520  0.38659175    -0.15900
C767        C  0.45005557  0.75617906  0.38038025     0.03100
C768        C  0.45009992  0.72548916  0.39737543    -0.11200
C769        C  0.46229250  0.73464398  0.42073702    -0.01200
C770        C  0.47638278  0.77253808  0.42674585    -0.06400
H771        H  0.46463281  0.81636136  0.37315472     0.06100
H772        H  0.46208604  0.71203833  0.43418834     0.09500
Br773      Br  0.57107417  0.79508015  0.40983134    -0.06100
Br774      Br  0.46393836  0.95694052  0.40524870    -0.03000
Br775      Br  0.43255696  0.75034362  0.34806978    -0.00200
Br776      Br  0.49409531  0.78276565  0.45855835    -0.04600
C777        C  0.49694438  0.79553546  0.20065062    -0.12000
C778        C  0.52243849  0.79028438  0.22027015     0.03500
C779        C  0.52149967  0.75475387  0.23242151    -0.12500
C780        C  0.49581795  0.72417472  0.22523408     0.18400
C781        C  0.47310347  0.72808664  0.20437470    -0.09500
C782        C  0.47376592  0.76369686  0.19224709    -0.02500
H783        H  0.53867857  0.75212999  0.24867329     0.04900
C784        C  0.48730748  0.69334846  0.24257834     0.20300
H785        H  0.45503212  0.76698842  0.17665604     0.10100
C786        C  0.45020884  0.69330805  0.25293523    -0.15900
C787        C  0.44399199  0.67387896  0.27421928     0.03100
C788        C  0.47545253  0.65433259  0.28544839    -0.11200
C789        C  0.51136354  0.65121537  0.27382853    -0.01200
C790        C  0.51753898  0.67067450  0.25261277    -0.06400
H791        H  0.42670390  0.71067749  0.24528117     0.06100
H792        H  0.53560795  0.63545277  0.28193006     0.09500
Br793      Br  0.43944532  0.68646572  0.19254943    -0.06100
Br794      Br  0.55537459  0.83164486  0.23324271    -0.03000
Br795      Br  0.39220793  0.67521594  0.28687708    -0.00200
Br796      Br  0.56856929  0.66779840  0.23901522    -0.04600
C797        C  0.47416507  0.50231582  0.31766375    -0.12000
C798        C  0.50580893  0.48659187  0.30477219     0.03500
C799        C  0.50132034  0.47755942  0.28066569    -0.12500
C800        C  0.46531168  0.48219087  0.26858222     0.18400
C801        C  0.43220825  0.49175320  0.28213495    -0.09500
C802        C  0.43690065  0.50266323  0.30625230    -0.02500
H803        H  0.52692418  0.46888607  0.27097934     0.04900
C804        C  0.46504378  0.48135703  0.24187405     0.20300
H805        H  0.41186703  0.51371655  0.31556248     0.10100
C806        C  0.48062959  0.44893984  0.22967674    -0.15900
C807        C  0.49077842  0.45153272  0.20559223     0.03100
C808        C  0.48561716  0.48713030  0.19310471    -0.11200
C809        C  0.46587833  0.51763521  0.20461436    -0.01200
C810        C  0.45666952  0.51557826  0.22862464    -0.06400
H811        H  0.48746112  0.42234385  0.23934967     0.06100
H812        H  0.46198247  0.54547736  0.19561184     0.09500
Br813      Br  0.38024661  0.49021767  0.26830739    -0.06100
Br814      Br  0.55736506  0.47907021  0.31855574    -0.03000
Br815      Br  0.51576694  0.40735968  0.19146038    -0.00200
Br816      Br  0.43992397  0.56361284  0.24300523    -0.04600
C817        C  0.02170644  0.56482110  0.56503653    -0.12000
C818        C  0.03254320  0.58658219  0.54480523     0.03500
C819        C  0.02060075  0.57384385  0.52220685    -0.12500
C820        C  0.99746656  0.53975880  0.51903125     0.18400
C821        C  0.98457500  0.51934931  0.53921808    -0.09500
C822        C  0.99659573  0.53197542  0.56192701    -0.02500
H823        H  0.03051295  0.59002264  0.50693105     0.04900
C824        C  0.98942666  0.52470747  0.49461341     0.20300
H825        H  0.98794932  0.51478523  0.57709057     0.10100
C826        C  0.00362480  0.48760976  0.48816269    -0.15900
C827        C  0.99558479  0.47177534  0.46565489     0.03100
C828        C  0.97418511  0.49358963  0.44881379    -0.11200
C829        C  0.96125057  0.53126426  0.45488540    -0.01200
C830        C  0.96857705  0.54688381  0.47752611    -0.06400
H831        H  0.02025103  0.47045876  0.50091477     0.06100
H832        H  0.94335078  0.54768349  0.44239185     0.09500
Br833      Br  0.95099391  0.47368835  0.53670399    -0.06100
Br834      Br  0.06405841  0.63390126  0.54663445    -0.03000
Br835      Br  0.01285042  0.41960335  0.45890181    -0.00200
Br836      Br  0.94646804  0.59703581  0.48474929    -0.04600
C837        C  0.95661337  0.50776752  0.94839318    -0.12000
C838        C  0.93263238  0.50556729  0.96834780     0.03500
C839        C  0.94769453  0.51684049  0.99048062    -0.12500
C840        C  0.98627230  0.53141136  0.99319178     0.18400
C841        C  0.00943159  0.53614048  0.97298995    -0.09500
C842        C  0.99451868  0.52428901  0.95078226    -0.02500
H843        H  0.92941393  0.51344166  0.00578861     0.04900
C844        C  0.00155972  0.54059783  0.01734262     0.20300
H845        H  0.01340635  0.52586351  0.93564484     0.10100
C846        C  0.03371052  0.51975261  0.02682326    -0.15900
C847        C  0.04793974  0.52728719  0.04987830     0.03100
C848        C  0.02917280  0.55514255  0.06395671    -0.11200
C849        C  0.99689167  0.57555152  0.05457294    -0.01200
C850        C  0.98314675  0.56871061  0.03150758    -0.06400
H851        H  0.04797707  0.49785900  0.01618038     0.06100
H852        H  0.98302081  0.59794402  0.06506646     0.09500
Br853      Br  0.06157145  0.55816424  0.97481769    -0.06100
Br854      Br  0.87917723  0.48664560  0.96638698    -0.03000
Br855      Br  0.09396735  0.50060655  0.06101622    -0.00200
Br856      Br  0.94072751  0.60042580  0.01977132    -0.04600
C857        C  0.98606558  0.55083837  0.69665258    -0.12000
C858        C  0.99238443  0.58637325  0.70927960     0.03500
C859        C  0.98260870  0.58895039  0.73345951    -0.12500
C860        C  0.96776508  0.55606910  0.74588312     0.18400
C861        C  0.95810559  0.52191685  0.73254003    -0.09500
C862        C  0.96610794  0.52017635  0.70836913    -0.02500
H863        H  0.98919325  0.61598488  0.74297272     0.04900
C864        C  0.96688948  0.55526306  0.77264374     0.20300
H865        H  0.96072888  0.49248386  0.69925862     0.10100
C866        C  0.93292820  0.54183822  0.78430139    -0.15900
C867        C  0.93497990  0.52756741  0.80773162     0.03100
C868        C  0.97112107  0.52814800  0.82042180    -0.11200
C869        C  0.00307227  0.54794485  0.81014550    -0.01200
C870        C  0.00154525  0.56092107  0.78660263    -0.06400
H871        H  0.90549680  0.53867040  0.77437595     0.06100
H872        H  0.03103460  0.54929181  0.81964131     0.09500
Br873      Br  0.93978941  0.47381389  0.74665388    -0.06100
Br874      Br  0.01838739  0.63052853  0.69523881    -0.03000
Br875      Br  0.88934890  0.50203861  0.82014841    -0.00200
Br876      Br  0.04989179  0.58058162  0.77397840    -0.04600
C877        C  0.44779447  0.53672127  0.45007822    -0.12000
C878        C  0.47135585  0.50333823  0.45453324     0.03500
C879        C  0.48308012  0.49388187  0.47790727    -0.12500
C880        C  0.47231905  0.51715679  0.49731316     0.18400
C881        C  0.44858473  0.55002097  0.49291150    -0.09500
C882        C  0.43589768  0.55875329  0.46985090    -0.02500
H883        H  0.50177023  0.46874669  0.48090660     0.04900
C884        C  0.48934334  0.50915277  0.52147071     0.20300
H885        H  0.41814223  0.58468954  0.46743549     0.10100
C886        C  0.53037356  0.51035472  0.52477716    -0.15900
C887        C  0.54803293  0.50232112  0.54684809     0.03100
C888        C  0.52473374  0.49355666  0.56654044    -0.11200
C889        C  0.48361796  0.49361606  0.56349573    -0.01200
C890        C  0.46589354  0.50053506  0.54121079    -0.06400
H891        H  0.54890223  0.51703565  0.50995433     0.06100
H892        H  0.46521784  0.48526711  0.57808756     0.09500
Br893      Br  0.43658228  0.58721529  0.51722184    -0.06100
Br894      Br  0.49026761  0.47035164  0.42981713    -0.03000
Br895      Br  0.60438878  0.50291807  0.54907423    -0.00200
Br896      Br  0.40990733  0.49354263  0.53834120    -0.04600
C897        C  0.39673897  0.45635196  0.62641141    -0.12000
C898        C  0.36415263  0.43152655  0.62106379     0.03500
C899        C  0.32724693  0.44783859  0.61630043    -0.12500
C900        C  0.32197933  0.48868696  0.61703421     0.18400
C901        C  0.35476606  0.51351978  0.62150922    -0.09500
C902        C  0.39185685  0.49730705  0.62568976    -0.02500
H903        H  0.30210682  0.42849085  0.61316117     0.04900
C904        C  0.28155799  0.50409026  0.61785016     0.20300
H905        H  0.41645283  0.51676741  0.63003114     0.10100
C906        C  0.26075286  0.49787936  0.63853146    -0.15900
C907        C  0.22385353  0.51423606  0.64157904     0.03100
C908        C  0.20681565  0.53797648  0.62357798    -0.11200
C909        C  0.22698557  0.54247157  0.60226277    -0.01200
C910        C  0.26411281  0.52575219  0.59932191    -0.06400
H911        H  0.27378320  0.48066750  0.65269912     0.06100
H912        H  0.21450472  0.56008298  0.58812626     0.09500
Br913      Br  0.34950360  0.56935182  0.62500973    -0.06100
Br914      Br  0.36812834  0.37525003  0.62034408    -0.03000
Br915      Br  0.19892243  0.50159520  0.67080506    -0.00200
Br916      Br  0.29009391  0.53339902  0.56995396    -0.04600
C917        C  0.46629202  0.56740465  0.94977961    -0.12000
C918        C  0.50403311  0.55201228  0.95426961     0.03500
C919        C  0.51303159  0.53539945  0.97643496    -0.12500
C920        C  0.48490567  0.53361820  0.99425629     0.18400
C921        C  0.44747515  0.54907451  0.98986561    -0.09500
C922        C  0.43846017  0.56534982  0.96790523    -0.02500
H923        H  0.54224580  0.52419766  0.97990277     0.04900
C924        C  0.49576613  0.51827374  0.01788941     0.20300
H925        H  0.40903973  0.57644992  0.96510346     0.10100
C926        C  0.52245183  0.54002346  0.03203389    -0.15900
C927        C  0.53367864  0.52666573  0.05444510     0.03100
C928        C  0.51726129  0.49155426  0.06333025    -0.11200
C929        C  0.49027840  0.46988488  0.04934814    -0.01200
C930        C  0.47969471  0.48282226  0.02662817    -0.06400
H931        H  0.53514232  0.56713917  0.02541750     0.06100
H932        H  0.47886827  0.44201705  0.05566375     0.09500
Br933      Br  0.40802854  0.55040792  0.01362619    -0.06100
Br934      Br  0.54501714  0.55497125  0.93167476    -0.03000
Br935      Br  0.57370004  0.55591550  0.07161662    -0.00200
Br936      Br  0.44552849  0.44980666  0.00758075    -0.04600
C937        C  0.30233722  0.53663262  0.80495860    -0.12000
C938        C  0.26674221  0.52357384  0.81465364     0.03500
C939        C  0.23321938  0.52122473  0.80041568    -0.12500
C940        C  0.23499720  0.53190783  0.77672683     0.18400
C941        C  0.27101046  0.54277326  0.76663967    -0.09500
C942        C  0.30475312  0.54486237  0.78089724    -0.02500
H943        H  0.20540829  0.51275959  0.80802193     0.04900
C944        C  0.19846861  0.53536618  0.76336793     0.20300
H945        H  0.33218770  0.55511161  0.77356389     0.10100
C946        C  0.18518139  0.57314554  0.75794582    -0.15900
C947        C  0.15454016  0.57785467  0.74171931     0.03100
C948        C  0.13763597  0.54443092  0.73090263    -0.11200
C949        C  0.14735351  0.50666490  0.73870749    -0.01200
C950        C  0.17803668  0.50189198  0.75496455    -0.06400
H951        H  0.20011956  0.59887201  0.76531577     0.06100
H952        H  0.13399563  0.48089150  0.73037563     0.09500
Br953      Br  0.27498375  0.55687771  0.73394241    -0.06100
Br954      Br  0.26202973  0.51015797  0.84740012    -0.03000
Br955      Br  0.13796999  0.63000773  0.73372667    -0.00200
Br956      Br  0.19397522  0.44953906  0.76294004    -0.04600
C957        C  0.28394471  0.57350862  0.91156256    -0.12000
C958        C  0.25172449  0.59868853  0.91396673     0.03500
C959        C  0.21334856  0.58303002  0.91397053    -0.12500
C960        C  0.20658728  0.54232572  0.91180228     0.18400
C961        C  0.23897672  0.51700289  0.91136553    -0.09500
C962        C  0.27724565  0.53267012  0.91112471    -0.02500
H963        H  0.18865811  0.60281795  0.91402554     0.04900
C964        C  0.16667126  0.52747372  0.90515166     0.20300
H965        H  0.30165246  0.51303022  0.90866071     0.10100
C966        C  0.15537937  0.52846391  0.88122350    -0.15900
C967        C  0.11988997  0.51144950  0.87330790     0.03100
C968        C  0.09434557  0.49356237  0.88950684    -0.11200
C969        C  0.10477973  0.49400307  0.91368881    -0.01200
C970        C  0.14103790  0.51027891  0.92152092    -0.06400
H971        H  0.17489762  0.54161557  0.86849799     0.06100
H972        H  0.08552960  0.48025403  0.92632869     0.09500
Br973      Br  0.23204420  0.46111736  0.90816082    -0.06100
Br974      Br  0.25853488  0.65480694  0.91405762    -0.03000
Br975      Br  0.10772610  0.51368449  0.84005778    -0.00200
Br976      Br  0.15546525  0.50683704  0.95434883    -0.04600
C977        C  0.49527104  0.54696887  0.81991257    -0.12000
C978        C  0.51611850  0.51428623  0.81137109     0.03500
C979        C  0.52722461  0.51224431  0.78759049    -0.12500
C980        C  0.51841202  0.54262308  0.77155981     0.18400
C981        C  0.50183178  0.57730967  0.78079250    -0.09500
C982        C  0.49052116  0.57923670  0.80464352    -0.02500
H983        H  0.53985566  0.48526430  0.78119202     0.04900
C984        C  0.52021053  0.53454601  0.74528190     0.20300
H985        H  0.47420386  0.60446529  0.81050196     0.10100
C986        C  0.48532936  0.53632479  0.73155169    -0.15900
C987        C  0.48324749  0.52220427  0.70819609     0.03100
C988        C  0.51613284  0.50469403  0.69776507    -0.11200
C989        C  0.55189190  0.50532181  0.71081365    -0.01200
C990        C  0.55419493  0.52035442  0.73418297    -0.06400
H991        H  0.45872170  0.54680613  0.73945544     0.06100
H992        H  0.57747633  0.49161073  0.70349294     0.09500
Br993      Br  0.49162886  0.62203627  0.76112854    -0.06100
Br994      Br  0.52506042  0.46898493  0.83082364    -0.03000
Br995      Br  0.43347057  0.52470354  0.69165461    -0.00200
Br996      Br  0.60426477  0.52034286  0.75039331    -0.04600
C997        C  0.83277098  0.20047007  0.64418372    -0.12000
C998        C  0.79284269  0.19122711  0.63936135     0.03500
C999        C  0.76419289  0.22022405  0.64157879    -0.12500
C1000       C  0.77454528  0.25888605  0.64819656     0.18400
C1001       C  0.81410996  0.26769093  0.65420201    -0.09500
C1002       C  0.84269573  0.23853812  0.65237568    -0.02500
H1003       H  0.73376080  0.21288612  0.63735468     0.04900
C1004       C  0.74368966  0.28953175  0.64783135     0.20300
H1005       H  0.87318212  0.24634290  0.65611943     0.10100
C1006       C  0.71329458  0.28744345  0.66409082    -0.15900
C1007       C  0.68131556  0.31306316  0.66269052     0.03100
C1008       C  0.67973067  0.34260477  0.64501468    -0.11200
C1009       C  0.71076896  0.34484822  0.62898533    -0.01200
C1010       C  0.74200097  0.31834639  0.63000472    -0.06400
H1011       H  0.71363281  0.26455237  0.67738420     0.06100
H1012       H  0.70996983  0.36630942  0.61487295     0.09500
Br1013     Br  0.83068618  0.31933689  0.66429606    -0.06100
Br1014     Br  0.77573667  0.13946508  0.62988583    -0.03000
Br1015     Br  0.63904000  0.30209199  0.68365585    -0.00200
Br1016     Br  0.77941593  0.32001708  0.60515016    -0.04600
C1017       C  0.05119886  0.98775210  0.44809450    -0.12000
C1018       C  0.02091229  0.01597710  0.44922738     0.03500
C1019       C  0.00434101  0.02547452  0.47107337    -0.12500
C1020       C  0.01739157  0.00814088  0.49235878     0.18400
C1021       C  0.04770101  0.98043159  0.49135395    -0.09500
C1022       C  0.06420399  0.97074070  0.46962436    -0.02500
H1023       H  0.98107973  0.04690485  0.47148257     0.04900
C1024       C  0.00051319  0.02102829  0.51536986     0.20300
H1025       H  0.08714169  0.94896768  0.46969344     0.10100
C1026       C  0.98059894  0.99412410  0.53003757    -0.15900
C1027       C  0.96415813  0.00630256  0.55151896     0.03100
C1028       C  0.96679047  0.04611668  0.55845838    -0.11200
C1029       C  0.98674402  0.07271159  0.54381040    -0.01200
C1030       C  0.00378438  0.06057945  0.52277544    -0.06400
H1031       H  0.97747834  0.96363692  0.52464787     0.06100
H1032       H  0.98962406  0.10335767  0.54895997     0.09500
Br1033     Br  0.06845550  0.95535484  0.51920820    -0.06100
Br1034     Br  0.00039995  0.04321587  0.42206285    -0.03000
Br1035     Br  0.93645236  0.96835392  0.57005864    -0.00200
Br1036     Br  0.03288405  0.09919104  0.50538354    -0.04600
C1037       C  0.95674279  0.23483054  0.59198036    -0.12000
C1038       C  0.92995776  0.26611601  0.59146879     0.03500
C1039       C  0.94380635  0.30503650  0.59378245    -0.12500
C1040       C  0.98424699  0.31326048  0.59610209     0.18400
C1041       C  0.01100487  0.28235164  0.59373785    -0.09500
C1042       C  0.99716825  0.24348912  0.59182302    -0.02500
H1043       H  0.92292800  0.32858494  0.59557017     0.04900
C1044       C  0.99762465  0.35187162  0.60576089     0.20300
H1045       H  0.01809026  0.21973745  0.59255490     0.10100
C1046       C  0.99957549  0.35641178  0.63036145    -0.15900
C1047       C  0.01401155  0.39121510  0.64073151     0.03100
C1048       C  0.02638959  0.42284103  0.62636264    -0.11200
C1049       C  0.02337733  0.41867243  0.60166038    -0.01200
C1050       C  0.00966780  0.38327093  0.59133764    -0.06400
H1051       H  0.99029700  0.33239321  0.64159774     0.06100
H1052       H  0.03294601  0.44248935  0.59037774     0.09500
Br1053     Br  0.06667788  0.29144165  0.59600452    -0.06100
Br1054     Br  0.87425390  0.25666793  0.59120938    -0.03000
Br1055     Br  0.01487340  0.39395201  0.67466823    -0.00200
Br1056     Br  0.00931015  0.37826541  0.55763877    -0.04600
C1057       C  0.98714472  0.20913990  0.70550217    -0.12000
C1058       C  0.01884083  0.21262332  0.72195299     0.03500
C1059       C  0.01686425  0.23993302  0.74019056    -0.12500
C1060       C  0.98358649  0.26308668  0.74247666     0.18400
C1061       C  0.95177658  0.25935586  0.72648575    -0.09500
C1062       C  0.95387355  0.23272423  0.70798349    -0.02500
H1063       H  0.04117863  0.24295423  0.75278173     0.04900
C1064       C  0.98205551  0.29033521  0.76214154     0.20300
H1065       H  0.92908147  0.23004700  0.69571173     0.10100
C1066       C  0.99718864  0.32835943  0.75943049    -0.15900
C1067       C  0.99546550  0.35549078  0.77779820     0.03100
C1068       C  0.97753622  0.34427023  0.79919762    -0.11200
C1069       C  0.96348326  0.30544444  0.80177841    -0.01200
C1070       C  0.96566351  0.27854100  0.78345125    -0.06400
H1071       H  0.01035502  0.33688263  0.74291605     0.06100
H1072       H  0.95099116  0.29563883  0.81818753     0.09500
Br1073     Br  0.90473040  0.28930960  0.72962639    -0.06100
Br1074     Br  0.06600118  0.18232980  0.72043110    -0.03000
Br1075     Br  0.01878103  0.40633634  0.77188597    -0.00200
Br1076     Br  0.94604475  0.22599443  0.78820267    -0.04600
C1077       C  0.31304315  0.70271435  0.86104296    -0.12000
C1078       C  0.27596386  0.69438284  0.85007560     0.03500
C1079       C  0.24677693  0.72335035  0.84898421    -0.12500
C1080       C  0.25339970  0.76093181  0.85869673     0.18400
C1081       C  0.29059974  0.76975297  0.86892582    -0.09500
C1082       C  0.31984320  0.74091134  0.87009027    -0.02500
H1083       H  0.21810114  0.71593961  0.84142568    -0.03100
C1084       C  0.22018569  0.78909470  0.86043108     0.20300
H1085       H  0.34764254  0.74801480  0.87887372     0.10100
C1086       C  0.19638535  0.78759545  0.88031312    -0.15900
C1087       C  0.16689841  0.81542411  0.88388486     0.03100
C1088       C  0.16027529  0.84589398  0.86716435    -0.11200
C1089       C  0.18333875  0.84622146  0.84676131    -0.01200
C1090       C  0.21300711  0.81840779  0.84338231    -0.06400
H1091       H  0.20141646  0.76502277  0.89348634     0.06100
H1092       H  0.17959622  0.86931501  0.83380969     0.09500
Br1093     Br  0.30182261  0.82036462  0.88272696    -0.06100
Br1094     Br  0.26118655  0.64273674  0.83897310    -0.03000
Br1095     Br  0.13711225  0.80946046  0.91212239    -0.00200
Br1096     Br  0.24418276  0.82255640  0.81570608    -0.04600
C1097       C  0.00237323  0.98397916  0.94690174    -0.12000
C1098       C  0.00072465  0.95725630  0.96595056     0.03500
C1099       C  0.99029871  0.97024054  0.98840636    -0.12500
C1100       C  0.98079734  0.00965387  0.99236854     0.18400
C1101       C  0.97867797  0.03553198  0.97296309    -0.09500
C1102       C  0.98899043  0.02246431  0.95037240    -0.02500
H1103       H  0.99033389  0.94962374  0.00297784     0.04900
C1104       C  0.97249512  0.02273021  0.01679806     0.20300
H1105       H  0.98868851  0.04303835  0.93581318     0.10100
C1106       C  0.99983248  0.04667105  0.02940430    -0.15900
C1107       C  0.99202841  0.05983855  0.05239642     0.03100
C1108       C  0.95691396  0.04826982  0.06320398    -0.11200
C1109       C  0.93018617  0.02368634  0.05072991    -0.01200
C1110       C  0.93753620  0.01116943  0.02775286    -0.06400
H1111       H  0.02680219  0.05589263  0.02110941     0.06100
H1112       H  0.90244636  0.01561315  0.05856557     0.09500
Br1113     Br  0.96252417  0.08899850  0.97671995    -0.06100
Br1114     Br  0.01185529  0.90241898  0.96213260    -0.03000
Br1115     Br  0.02815748  0.09594612  0.06762040    -0.00200
Br1116     Br  0.89745577  0.98102494  0.01130305    -0.04600
C1117       C  0.99317243  0.00443895  0.81499812    -0.12000
C1118       C  0.99692348  0.96891692  0.80224139     0.03500
C1119       C  0.98861161  0.96769403  0.77762904    -0.12500
C1120       C  0.97706062  0.00165014  0.76506831     0.18400
C1121       C  0.97014253  0.03610851  0.77824283    -0.09500
C1122       C  0.97750276  0.03695464  0.80273741    -0.02500
H1123       H  0.99373773  0.94075456  0.76799785     0.04900
C1124       C  0.97700679  0.00274197  0.73839638     0.20300
H1125       H  0.97475270  0.06476961  0.81190510     0.10100
C1126       C  0.94316015  0.01435691  0.72547456    -0.15900
C1127       C  0.94519045  0.02624159  0.70161051     0.03100
C1128       C  0.98118553  0.02496069  0.68970912    -0.11200
C1129       C  0.01364735  0.00847989  0.70186751    -0.01200
C1130       C  0.01218249  0.99841138  0.72590500    -0.06400
H1131       H  0.91577150  0.01773744  0.73460164     0.06100
H1132       H  0.04186016  0.00785634  0.69336298     0.09500
Br1133     Br  0.95640965  0.08501929  0.76341083    -0.06100
Br1134     Br  0.01808885  0.92276900  0.81685734    -0.03000
Br1135     Br  0.89987239  0.05043108  0.68752796    -0.00200
Br1136     Br  0.06102025  0.98545786  0.74152561    -0.04600
C1137       C  0.04502211  0.12542218  0.88794118    -0.12000
C1138       C  0.03948411  0.13349263  0.91208090     0.03500
C1139       C  0.02373873  0.16963933  0.91896790    -0.12500
C1140       C  0.01363419  0.19806630  0.90203571     0.18400
C1141       C  0.02075075  0.19061439  0.87804008    -0.09500
C1142       C  0.03637602  0.15465316  0.87121514    -0.02500
H1143       H  0.01905537  0.17544148  0.93750401     0.04900
C1144       C  0.99439509  0.23493725  0.90909533     0.20300
H1145       H  0.04077522  0.14907523  0.85261610     0.10100
C1146       C  0.01745471  0.26737855  0.91662267    -0.15900
C1147       C  0.00115925  0.30506073  0.91774812     0.03100
C1148       C  0.96126265  0.31030556  0.91163508    -0.11200
C1149       C  0.93763090  0.27727442  0.90616596    -0.01200
C1150       C  0.95386623  0.23984486  0.90476793    -0.06400
H1151       H  0.04870778  0.26392022  0.91986105     0.06100
H1152       H  0.90711815  0.28111794  0.90085578     0.09500
Br1153     Br  0.00868007  0.22845118  0.85386178    -0.06100
Br1154     Br  0.05543271  0.09740613  0.93625500    -0.03000
Br1155     Br  0.03514973  0.34916028  0.92481232    -0.00200
Br1156     Br  0.92055290  0.19713452  0.89404366    -0.04600
C1157       C  0.33207318  0.83847996  0.65989615    -0.12000
C1158       C  0.33891163  0.79969466  0.65210829     0.03500
C1159       C  0.30944872  0.77025190  0.65395184    -0.12500
C1160       C  0.27236608  0.77865806  0.66317355     0.18400
C1161       C  0.26635773  0.81690858  0.67211739    -0.09500
C1162       C  0.29595660  0.84613501  0.67055189    -0.02500
H1163       H  0.31501833  0.74099398  0.64730966     0.04900
C1164       C  0.23970374  0.74824160  0.66174233     0.20300
H1165       H  0.28979853  0.87568071  0.67652965     0.10100
C1166       C  0.24069633  0.71443725  0.67608511    -0.15900
C1167       C  0.21145883  0.68455743  0.67399174     0.03100
C1168       C  0.18014627  0.68786539  0.65721710    -0.11200
C1169       C  0.17923508  0.72191302  0.64306345    -0.01200
C1170       C  0.20828929  0.75166635  0.64519041    -0.06400
H1171       H  0.26484247  0.71083565  0.68864501     0.06100
H1172       H  0.15617860  0.72498743  0.62972086     0.09500
Br1173     Br  0.21754577  0.83109142  0.68590912    -0.06100
Br1174     Br  0.38819441  0.78561075  0.63892319    -0.03000
Br1175     Br  0.21826346  0.63814571  0.69273421    -0.00200
Br1176     Br  0.20511726  0.79541116  0.62388056    -0.04600
C1177       C  0.47229282  0.99158790  0.57342957    -0.12000
C1178       C  0.45106528  0.02005379  0.56047584     0.03500
C1179       C  0.46429820  0.03314866  0.53857562    -0.12500
C1180       C  0.49890757  0.01857043  0.52918373     0.18400
C1181       C  0.52128673  0.99154938  0.54254961    -0.09500
C1182       C  0.50778161  0.97800526  0.56445328    -0.02500
H1183       H  0.44729863  0.05454783  0.52871203     0.04900
C1184       C  0.51109508  0.03195281  0.50544351     0.20300
H1185       H  0.52453896  0.95630434  0.57420356     0.10100
C1186       C  0.53433067  0.06603364  0.50347983    -0.15900
C1187       C  0.54792560  0.07846740  0.48149488     0.03100
C1188       C  0.53802085  0.05670030  0.46075052    -0.11200
C1189       C  0.51296277  0.02373486  0.46268472    -0.01200
C1190       C  0.49970294  0.01123104  0.48476868    -0.06400
H1191       H  0.54255496  0.08264315  0.51921897     0.06100
H1192       H  0.50529870  0.00638062  0.44716114     0.09500
Br1193     Br  0.57019108  0.97234695  0.53130483    -0.06100
Br1194     Br  0.40379953  0.04230957  0.57207032    -0.03000
Br1195     Br  0.57988122  0.12554166  0.48117309    -0.00200
Br1196     Br  0.46741947  0.96469564  0.48600509    -0.04600
C1197       C  0.28135088  0.96096712  0.61404478    -0.12000
C1198       C  0.27137321  0.98261987  0.59357522     0.03500
C1199       C  0.23331349  0.99753815  0.59073198    -0.12500
C1200       C  0.20508308  0.99164376  0.60813319     0.18400
C1201       C  0.21420185  0.96788473  0.62773925    -0.09500
C1202       C  0.25169723  0.95244426  0.63033229    -0.02500
H1203       H  0.22634239  0.01569055  0.57554082     0.04900
C1204       C  0.16812950  0.01394117  0.60736649     0.20300
H1205       H  0.25827755  0.93544928  0.64607586     0.10100
C1206       C  0.13198619  0.99361353  0.60610043    -0.15900
C1207       C  0.09684177  0.01283746  0.61072918     0.03100
C1208       C  0.09766781  0.05344028  0.61624131    -0.11200
C1209       C  0.13362210  0.07413298  0.61568058    -0.01200
C1210       C  0.16864176  0.05479555  0.61147057    -0.06400
H1211       H  0.13145582  0.96211287  0.60311026     0.06100
H1212       H  0.13480121  0.10531117  0.61970650     0.09500
Br1213     Br  0.17827152  0.95933483  0.65304648    -0.06100
Br1214     Br  0.30868816  0.99607754  0.57005127    -0.03000
Br1215     Br  0.05000711  0.98081383  0.61224069    -0.00200
Br1216     Br  0.21660911  0.08503013  0.61407868    -0.04600
C1217       C  0.28811012  0.99005768  0.70802420    -0.12000
C1218       C  0.25249541  0.00624357  0.70004678     0.03500
C1219       C  0.21864133  0.99943159  0.71279633    -0.12500
C1220       C  0.22066712  0.97883341  0.73418312     0.18400
C1221       C  0.25637474  0.96189863  0.74183212    -0.09500
C1222       C  0.28961640  0.96696279  0.72837294    -0.02500
H1223       H  0.19122909  0.01239835  0.70687891     0.04900
C1224       C  0.18788802  0.98101912  0.75030544     0.20300
H1225       H  0.31713441  0.95415892  0.73427547     0.10100
C1226       C  0.17139238  0.94612910  0.75913307    -0.15900
C1227       C  0.14963131  0.94694725  0.77967702     0.03100
C1228       C  0.14358050  0.98318182  0.79086765    -0.11200
C1229       C  0.15567200  0.01825926  0.78030217    -0.01200
C1230       C  0.17804016  0.01755006  0.76019949    -0.06400
H1231       H  0.17803512  0.91809894  0.75110272     0.06100
H1232       H  0.14997713  0.04628457  0.78865025     0.09500
Br1233     Br  0.26278449  0.93484356  0.77144593    -0.06100
Br1234     Br  0.24896962  0.03839864  0.67228487    -0.03000
Br1235     Br  0.12917283  0.89839909  0.79180320    -0.00200
Br1236     Br  0.19804463  0.06722651  0.74916635    -0.04600
C1237       C  0.53966915  0.30259564  0.60184795    -0.12000
C1238       C  0.56163876  0.26786191  0.60392174     0.03500
C1239       C  0.54236993  0.23143553  0.60598696    -0.12500
C1240       C  0.50122579  0.22906120  0.60642476     0.18400
C1241       C  0.47925008  0.26335955  0.60243775    -0.09500
C1242       C  0.49855847  0.29976750  0.60002527    -0.02500
H1243       H  0.55956320  0.20526519  0.60907403     0.04900
C1244       C  0.48259627  0.19211567  0.61480730     0.20300
H1245       H  0.48130444  0.32631106  0.59904597     0.10100
C1246       C  0.47200953  0.18955014  0.63853472    -0.15900
C1247       C  0.45752723  0.15433145  0.64806726     0.03100
C1248       C  0.45359171  0.12015526  0.63366901    -0.11200
C1249       C  0.46411290  0.12329333  0.60972848    -0.01200
C1250       C  0.47831590  0.15872646  0.60031637    -0.06400
H1251       H  0.47561686  0.21515306  0.64985907     0.06100
H1252       H  0.46132151  0.09806965  0.59810250     0.09500
Br1253     Br  0.42292760  0.26234405  0.60223311    -0.06100
Br1254     Br  0.61793140  0.26935735  0.60686602    -0.03000
Br1255     Br  0.44423329  0.15611694  0.68086838    -0.00200
Br1256     Br  0.49096800  0.16050638  0.56749147    -0.04600
C1257       C  0.66788880  0.19769368  0.87865401    -0.12000
C1258       C  0.69604061  0.20686753  0.89688500     0.03500
C1259       C  0.72559487  0.23527949  0.89325427    -0.12500
C1260       C  0.72891296  0.25481739  0.87161471     0.18400
C1261       C  0.70263124  0.24431953  0.85300023    -0.09500
C1262       C  0.67244915  0.21626364  0.85659680    -0.02500
H1263       H  0.74622855  0.24232693  0.90754075     0.04900
C1264       C  0.75996960  0.28602960  0.86911743     0.20300
H1265       H  0.65165486  0.21005053  0.84227558     0.10100
C1266       C  0.79394739  0.27829518  0.85633421    -0.15900
C1267       C  0.82549979  0.30551817  0.85581318     0.03100
C1268       C  0.82355528  0.34154030  0.86829275    -0.11200
C1269       C  0.78876786  0.34966968  0.88033119    -0.01200
C1270       C  0.75736417  0.32250950  0.88081925    -0.06400
H1271       H  0.79655935  0.25024397  0.84743437     0.06100
H1272       H  0.78641671  0.37695081  0.89009460     0.09500
Br1273     Br  0.70585160  0.26909894  0.82272027    -0.06100
Br1274     Br  0.69732041  0.18140084  0.92720884    -0.03000
Br1275     Br  0.87174130  0.28982234  0.83977343    -0.00200
Br1276     Br  0.71170513  0.33629527  0.89815536    -0.04600
C1277       C  0.51390309  0.05959336  0.96362239    -0.12000
C1278       C  0.50003679  0.08598736  0.98088663     0.03500
C1279       C  0.48651515  0.07187357  0.00238098    -0.12500
C1280       C  0.48601640  0.03167012  0.00737417     0.18400
C1281       C  0.49821613  0.00493643  0.98994328    -0.09500
C1282       C  0.51204534  0.01900176  0.96823014    -0.02500
H1283       H  0.47609789  0.09252057  0.01536211     0.04900
C1284       C  0.47201117  0.01892500  0.03084325     0.20300
H1285       H  0.52200577  0.99830775  0.95515753     0.10100
C1286       C  0.43429473  0.00241558  0.03264706    -0.15900
C1287       C  0.41945527  0.99171910  0.05464320     0.03100
C1288       C  0.44309639  0.99613254  0.07543999    -0.11200
C1289       C  0.48004769  0.01476202  0.07367917    -0.01200
C1290       C  0.49425626  0.02661116  0.05169834    -0.06400
H1291       H  0.41606952  0.99837673  0.01687173     0.06100
H1292       H  0.49868623  0.01876170  0.08927772     0.09500
Br1293     Br  0.49761651  0.94927164  0.99530916    -0.06100
Br1294     Br  0.49596054  0.14175879  0.97589361    -0.03000
Br1295     Br  0.36598548  0.97283508  0.05512103    -0.00200
Br1296     Br  0.54459964  0.05252849  0.05094073    -0.04600
C1297       C  0.19807736  0.98726754  0.90653178    -0.12000
C1298       C  0.20082291  0.02594952  0.91543746     0.03500
C1299       C  0.23760800  0.04495402  0.91738559    -0.12500
C1300       C  0.27179660  0.02604271  0.91019060     0.18400
C1301       C  0.26915153  0.98685351  0.90215033    -0.09500
C1302       C  0.23254368  0.96779679  0.90046194    -0.02500
H1303       H  0.23925950  0.07537048  0.92310978     0.04900
C1304       C  0.30883336  0.04886721  0.90771262     0.20300
H1305       H  0.23069741  0.93833810  0.89311846     0.10100
C1306       C  0.34056619  0.04296851  0.92346543    -0.15900
C1307       C  0.37765064  0.05989272  0.91928334     0.03100
C1308       C  0.38365364  0.08245641  0.89860048    -0.11200
C1309       C  0.35083539  0.09009870  0.88379194    -0.01200
C1310       C  0.31389244  0.07378910  0.88822223    -0.06400
H1311       H  0.33664639  0.02443646  0.93880394     0.06100
H1312       H  0.35402588  0.10759869  0.86797244     0.09500
Br1313     Br  0.31409553  0.95972490  0.89074029    -0.06100
Br1314     Br  0.15487252  0.05574383  0.92194543    -0.03000
Br1315     Br  0.41779275  0.05184257  0.94293799    -0.00200
Br1316     Br  0.27178617  0.08438502  0.86612587    -0.04600
C1317       C  0.52612720  0.17819087  0.80010084    -0.12000
C1318       C  0.49261233  0.18177160  0.78508287     0.03500
C1319       C  0.49509053  0.20445459  0.76474260    -0.12500
C1320       C  0.53027072  0.22361746  0.75935057     0.18400
C1321       C  0.56424698  0.21798803  0.77331098    -0.09500
C1322       C  0.56203770  0.19521824  0.79358780    -0.02500
H1323       H  0.46888363  0.20942721  0.75398983     0.04900
C1324       C  0.52931625  0.25500595  0.74202124     0.20300
H1325       H  0.58802130  0.19223740  0.80482367     0.10100
C1326       C  0.52383857  0.29337611  0.75019349    -0.15900
C1327       C  0.52519113  0.32500348  0.73472297     0.03100
C1328       C  0.53200501  0.31793084  0.71065515    -0.11200
C1329       C  0.53671481  0.27917320  0.70251204    -0.01200
C1330       C  0.53536304  0.24766142  0.71808055    -0.06400
H1331       H  0.51936010  0.29870998  0.76881685     0.06100
H1332       H  0.54132779  0.27334311  0.68395828     0.09500
Br1333     Br  0.61320755  0.24361954  0.76628332    -0.06100
Br1334     Br  0.44145145  0.16136802  0.79264254    -0.03000
Br1335     Br  0.52014173  0.37679551  0.74791241    -0.00200
Br1336     Br  0.54268950  0.19543941  0.70621078    -0.04600
C1337       C  0.44859584  0.43309214  0.89587348    -0.12000
C1338       C  0.48854106  0.42630550  0.90156368     0.03500
C1339       C  0.50035868  0.38872041  0.90874452    -0.12500
C1340       C  0.47289313  0.35776254  0.91050631     0.18400
C1341       C  0.43263849  0.36571397  0.90733136    -0.09500
C1342       C  0.42089540  0.40293304  0.89980702    -0.02500
H1343       H  0.53140394  0.38291168  0.91123310     0.04900
C1344       C  0.48712330  0.31678662  0.91084685     0.20300
H1345       H  0.38997639  0.40790227  0.89612172     0.10100
C1346       C  0.50801260  0.30197801  0.93053073    -0.15900
C1347       C  0.52474215  0.26434323  0.92990403     0.03100
C1348       C  0.52049886  0.24107250  0.90927482    -0.11200
C1349       C  0.49876479  0.25594741  0.88994256    -0.01200
C1350       C  0.48283710  0.29338341  0.89040519    -0.06400
H1351       H  0.51219528  0.32014443  0.94614442     0.06100
H1352       H  0.49517903  0.23881272  0.87385890     0.09500
Br1353     Br  0.39289954  0.32577536  0.91120902    -0.06100
Br1354     Br  0.52880659  0.46530828  0.89713135    -0.03000
Br1355     Br  0.55569359  0.24796180  0.95676274    -0.00200
Br1356     Br  0.45873548  0.31233668  0.86163467    -0.04600
C1357       C  0.50386583  0.02290740  0.83274363    -0.12000
C1358       C  0.53708043  0.02765213  0.81847690     0.03500
C1359       C  0.53560513  0.01568425  0.79455005    -0.12500
C1360       C  0.50071804  0.00052488  0.78380782     0.18400
C1361       C  0.46880925  0.99218764  0.79880884    -0.09500
C1362       C  0.47104449  0.00264849  0.82285623    -0.02500
H1363       H  0.56103907  0.02110538  0.78381257     0.04900
C1364       C  0.49676402  0.99745440  0.75709634     0.20300
H1365       H  0.44492230  0.99907406  0.83329615     0.10100
C1366       C  0.48114117  0.96305372  0.74628343    -0.15900
C1367       C  0.46921306  0.96251463  0.72225575     0.03100
C1368       C  0.47595636  0.99544298  0.70764865    -0.11200
C1369       C  0.49557669  0.02816270  0.71780608    -0.01200
C1370       C  0.50484694  0.02997523  0.74216598    -0.06400
H1371       H  0.47526646  0.93735985  0.75697207     0.06100
H1372       H  0.49914226  0.05458202  0.70733250     0.09500
Br1373     Br  0.41882903  0.97205958  0.78739206    -0.06100
Br1374     Br  0.58285079  0.05603341  0.82966699    -0.03000
Br1375     Br  0.43803766  0.91862781  0.71106278    -0.00200
Br1376     Br  0.52213962  0.08036456  0.75419785    -0.04600
loop_ 
_geom_bond_atom_site_label_1 
_geom_bond_atom_site_label_2 
_geom_bond_distance 
_geom_bond_site_symmetry_2 
_ccdc_geom_bond_type 
O1           Ni7   1.914       .  S
O1           C22   1.269       .  A
O2          Ni25   1.909       .  S
O2           C11   1.279       .  A
O3           Ni7   1.868       .  S
O3          Ni25   1.871       .  S
O3          Ni19   1.919       .  S
O3           H26   0.964       .  S
C4           O21   1.285       .  A
C4           O13   1.281       .  A
C4         C1257   1.507       .  S
O5          Ni24   1.936       .  S
O5           C11   1.279       .  A
O6          Ni24   1.927       .  S
O6            C8   1.270       .  A
Ni7          O10   1.914       .  S
Ni7          O12   1.898       .  S
C8           O18   1.268       .  A
C8         C1348   1.484       .  S
O9          Ni25   1.952       .  S
O9           C15   1.283       .  A
O10          C15   1.277       .  A
C11        C1277   1.486       .  S
O12          C14   1.264       .  A
O13         Ni24   1.946       .  S
C14          O20   1.290       .  A
C14        C1357   1.498       .  S
C15        C1308   1.495       .  S
H16          O17   0.967       .  S
O17         Ni25   1.923       .  S
O17         Ni19   1.894       .  S
O17         Ni24   1.894       .  S
O18         Ni19   1.918       .  S
Ni19         O23   1.898       .  S
Ni19         O21   1.936       .  S
O20         Ni25   1.985       .  S
C22          O23   1.272       .  A
C22        C1317   1.460       .  S
O27         Ni33   1.909       .  S
O27          C48   1.269   1_545  A
O28         Ni51   1.902       .  S
O28          C37   1.275       .  A
O29         Ni33   1.898       .  S
O29         Ni51   1.880   1_545  S
O29         Ni45   1.955   1_545  S
O29          H52   0.966       .  S
C30          O47   1.283       .  A
C30          O39   1.286       .  A
C30        C1157   1.501       .  S
O31         Ni50   1.958       .  S
O31          C37   1.283       .  A
O32         Ni50   1.933       .  S
O32          C34   1.271       .  A
Ni33         O36   1.932       .  S
Ni33         O38   1.880       .  S
C34          O44   1.264       .  A
C34        C1197   1.485       .  S
O35         Ni51   1.914   1_545  S
O35          C41   1.262       .  A
O36          C41   1.265       .  A
C37        C1177   1.484       .  S
O38          C40   1.274       .  A
O39         Ni50   1.964       .  S
C40          O46   1.307   1_545  A
C40        C1368   1.489   1_545  S
C41        C1248   1.501       .  S
H42          O43   0.966       .  S
O43         Ni51   1.898       .  S
O43         Ni45   1.876       .  S
O43         Ni50   1.906       .  S
O44         Ni45   1.903       .  S
Ni45         O49   1.878       .  S
Ni45         O47   1.928       .  S
O46         Ni51   2.014       .  S
C48          O49   1.261       .  A
C48        C1217   1.444       .  S
O53         Ni59   1.911       .  S
O53          C74   1.269   1_545  A
O54         Ni77   1.911   1_565  S
O54          C63   1.279       .  A
O55         Ni59   1.875       .  S
O55         Ni77   1.871       .  S
O55         Ni71   1.918   1_545  S
O55          H78   0.964       .  S
C56          O73   1.282       .  A
C56          O65   1.283       .  A
C56        C1088   1.505       .  S
O57         Ni76   1.944       .  S
O57          C63   1.282       .  A
O58         Ni76   1.926       .  S
O58          C60   1.272       .  A
Ni59         O62   1.911       .  S
Ni59         O64   1.897       .  S
C60          O70   1.270       .  A
C60        C1297   1.474       .  S
O61         Ni77   1.952       .  S
O61          C67   1.285       .  A
O62          C67   1.277       .  A
C63        C1097   1.488       .  S
O64          C66   1.262       .  A
O65         Ni76   1.956       .  S
C66          O72   1.287   1_545  A
C66        C1117   1.503   1_455  S
C67        C1137   1.480       .  S
H68          O69   0.966       .  S
O69         Ni77   1.921   1_565  S
O69         Ni71   1.892       .  S
O69         Ni76   1.891       .  S
O70         Ni71   1.931       .  S
Ni71         O75   1.897       .  S
Ni71         O73   1.925       .  S
O72         Ni77   1.988   1_565  S
C74          O75   1.272       .  A
C74        C1228   1.447       .  S
O79         Ni85   1.919       .  S
O79         C100   1.267   1_455  A
O80        Ni103   1.913       .  S
O80          C89   1.278       .  A
O81         Ni85   1.887   1_655  S
O81        Ni103   1.889       .  S
O81         Ni97   1.908       .  S
O81         H104   0.966   1_655  S
C82          O99   1.279       .  A
C82          O91   1.283       .  A
C82         C997   1.487       .  S
O83        Ni102   1.944       .  S
O83          C89   1.280       .  A
O84        Ni102   1.929       .  S
O84          C86   1.269       .  A
Ni85         O88   1.910       .  S
Ni85         O90   1.891       .  S
C86          O96   1.263       .  A
C86        C1037   1.473       .  S
O87        Ni103   1.921   1_455  S
O87          C93   1.274       .  A
O88          C93   1.274       .  A
C89        C1028   1.493       .  S
O90          C92   1.268   1_455  A
O91        Ni102   1.943       .  S
C92          O98   1.292       .  A
C92        C1128   1.500       .  S
C93        C1208   1.477       .  S
H94          O95   0.966       .  S
O95        Ni103   1.914       .  S
O95         Ni97   1.890       .  S
O95        Ni102   1.910       .  S
O96         Ni97   1.901       .  S
Ni97        O101   1.883       .  S
Ni97         O99   1.920       .  S
O98        Ni103   1.984       .  S
C100        O101   1.263       .  A
C100       C1057   1.462       .  S
O105       Ni111   1.913       .  S
O105        C126   1.266       .  A
O106       Ni129   1.906       .  S
O106        C115   1.276       .  A
O107       Ni111   1.890       .  S
O107       Ni129   1.881       .  S
O107       Ni123   1.920       .  S
O107        H130   0.966       .  S
C108        O125   1.279       .  A
C108        O117   1.279       .  A
C108       C1077   1.500       .  S
O109       Ni128   1.921       .  S
O109        C115   1.275       .  A
O110       Ni128   1.928       .  S
O110        C112   1.269       .  A
Ni111       O114   1.913       .  S
Ni111       O116   1.893       .  S
C112        O122   1.262       .  A
C112        C957   1.474       .  S
O113       Ni129   1.936       .  S
O113        C119   1.277       .  A
O114        C119   1.275       .  A
C115        C917   1.491       .  S
O116        C118   1.268       .  A
O117       Ni128   1.940       .  S
C118        O124   1.293       .  A
C118        C977   1.497       .  S
C119       C1337   1.481       .  S
H120        O121   0.966       .  S
O121       Ni129   1.936       .  S
O121       Ni123   1.894       .  S
O121       Ni128   1.921       .  S
O122       Ni123   1.908       .  S
Ni123       O127   1.870       .  S
Ni123       O125   1.930       .  S
O124       Ni129   1.988       .  S
C126        O127   1.259       .  A
C126        C937   1.440       .  S
O131       Ni137   1.913       .  S
O131        C152   1.266       .  A
O132       Ni155   1.911       .  S
O132        C141   1.280       .  A
O133       Ni137   1.889       .  S
O133       Ni155   1.886       .  S
O133       Ni149   1.918       .  S
O133        H156   0.966       .  S
C134        O151   1.276       .  A
C134        O143   1.284       .  A
C134       C1008   1.498       .  S
O135       Ni154   1.938       .  S
O135        C141   1.278       .  A
O136       Ni154   1.928       .  S
O136        C138   1.268       .  A
Ni137       O140   1.918       .  S
Ni137       O142   1.901       .  S
C138        O148   1.262       .  A
C138       C1237   1.469       .  S
O139       Ni155   1.927       .  S
O139        C145   1.274       .  A
O140        C145   1.273       .  A
C141        C888   1.489       .  S
O142        C144   1.270       .  A
O143       Ni154   1.954       .  S
C144        O150   1.293       .  A
C144        C988   1.501       .  S
C145        C897   1.480       .  S
H146        O147   0.966       .  S
O147       Ni155   1.920       .  S
O147       Ni149   1.895       .  S
O147       Ni154   1.910       .  S
O148       Ni149   1.912       .  S
Ni149       O153   1.882       .  S
Ni149       O151   1.915       .  S
O150       Ni155   1.985       .  S
C152        O153   1.261       .  A
C152       C1328   1.458       .  S
O157       Ni163   1.909   1_655  S
O157        C178   1.265       .  A
O158       Ni181   1.899       .  S
O158        C167   1.273       .  A
O159       Ni163   1.883   1_655  S
O159       Ni181   1.881       .  S
O159       Ni175   1.924       .  S
O159        H182   0.966   1_655  S
C160        O177   1.285       .  A
C160        O169   1.280       .  A
C160       C1268   1.498       .  S
O161       Ni180   1.927       .  S
O161        C167   1.276       .  A
O162       Ni180   1.926       .  S
O162        C164   1.268       .  A
Ni163       O166   1.914       .  S
Ni163       O168   1.898       .  S
C164        O174   1.263       .  A
C164       C1148   1.469       .  S
O165       Ni181   1.942   1_455  S
O165        C171   1.279       .  A
O166        C171   1.275       .  A
C167        C837   1.472       .  S
O168        C170   1.268   1_455  A
O169       Ni180   1.935       .  S
C170        O176   1.287       .  A
C170        C868   1.498       .  S
C171        C968   1.480       .  S
H172        O173   0.966       .  S
O173       Ni181   1.920       .  S
O173       Ni175   1.893       .  S
O173       Ni180   1.903       .  S
O174       Ni175   1.907       .  S
Ni175       O179   1.892       .  S
Ni175       O177   1.940       .  S
O176       Ni181   1.976       .  S
C178        O179   1.267       .  A
C178       C1068   1.470       .  S
O183       Ni189   1.912       .  S
O183        C204   1.268       .  A
O184       Ni207   1.912       .  S
O184        C193   1.281       .  A
O185       Ni189   1.878       .  S
O185       Ni207   1.870       .  S
O185       Ni201   1.923       .  S
O185        H208   0.965       .  S
C186        O203   1.286       .  A
C186        O195   1.284       .  A
C186       C1168   1.508       .  S
O187       Ni206   1.942       .  S
O187        C193   1.281       .  A
O188       Ni206   1.929       .  S
O188        C190   1.272       .  A
Ni189       O192   1.909       .  S
Ni189       O194   1.894       .  S
C190        O200   1.267       .  A
C190        C908   1.489       .  S
O191       Ni207   1.960       .  S
O191        C197   1.286       .  A
O192        C197   1.276       .  A
C193        C817   1.490       .  S
O194        C196   1.261       .  A
O195       Ni206   1.953       .  S
C196        O202   1.290       .  A
C196        C857   1.508   1_455  S
C197       C1048   1.484       .  S
H198        O199   0.966       .  S
O199       Ni207   1.923       .  S
O199       Ni201   1.887       .  S
O199       Ni206   1.891       .  S
O200       Ni201   1.921       .  S
Ni201       O205   1.882       .  S
Ni201       O203   1.942       .  S
O202       Ni207   1.996       .  S
C204        O205   1.271       .  A
C204        C948   1.439       .  S
O209       Ni215   1.940       .  S
O209        C230   1.282       .  A
O210       Ni233   1.910       .  S
O210        C219   1.273       .  A
O211       Ni215   1.890       .  S
O211       Ni233   1.895       .  S
O211       Ni227   1.921       .  S
O211        H234   0.966       .  S
C212        O229   1.285       .  A
C212        O221   1.276       .  A
C212        C737   1.488       .  S
O213       Ni232   1.915       .  S
O213        C219   1.269       .  A
O214       Ni232   1.892       .  S
O214        C216   1.262       .  A
Ni215       O218   1.942       .  S
Ni215       O220   1.926       .  S
C216        O226   1.291       .  A
C216        C797   1.510       .  S
O217       Ni233   1.935       .  S
O217        C223   1.284       .  A
O218        C223   1.282       .  A
C219        C788   1.469       .  S
O220        C222   1.273       .  A
O221       Ni232   1.915       .  S
C222        O228   1.269       .  A
C222        C768   1.492       .  S
C223        C728   1.494       .  S
H224        O225   0.966       .  S
O225       Ni233   1.921       .  S
O225       Ni227   1.882       .  S
O225       Ni232   1.876       .  S
O226       Ni227   1.995       .  S
Ni227       O231   1.922       .  S
Ni227       O229   1.961       .  S
O228       Ni233   1.921       .  S
C230        O231   1.283       .  A
C230        C877   1.511       .  S
O235       Ni241   1.938       .  S
O235        C256   1.280       .  A
O236       Ni259   1.890       .  S
O236        C245   1.268       .  A
O237       Ni241   1.892       .  S
O237       Ni259   1.886       .  S
O237       Ni253   1.917       .  S
O237        H260   0.967       .  S
C238        O255   1.285       .  A
C238        O247   1.274       .  A
C238        C708   1.496       .  S
O239       Ni258   1.907       .  S
O239        C245   1.265       .  A
O240       Ni258   1.898       .  S
O240        C242   1.264       .  A
Ni241       O244   1.950       .  S
Ni241       O246   1.927       .  S
C242        O252   1.287       .  A
C242        C808   1.502       .  S
O243       Ni259   1.915       .  S
O243        C249   1.279       .  A
O244        C249   1.284       .  A
C245        C677   1.439       .  S
O246        C248   1.271       .  A
O247       Ni258   1.911       .  S
C248        O254   1.269       .  A
C248        C657   1.494       .  S
C249        C648   1.484       .  S
H250        O251   0.950       .  S
O251       Ni259   1.919       .  S
O251       Ni253   1.869       .  S
O251       Ni258   1.873       .  S
O252       Ni253   1.983       .  S
Ni253       O257   1.896       .  S
Ni253       O255   1.957       .  S
O254       Ni259   1.929       .  S
C256        O257   1.276       .  A
C256        C928   1.465       .  S
O261       Ni267   1.934       .  S
O261        C282   1.279       .  A
O262       Ni285   1.881       .  S
O262        C271   1.265       .  A
O263       Ni267   1.895       .  S
O263       Ni285   1.882       .  S
O263       Ni279   1.912       .  S
O263        H286   0.966       .  S
C264        O281   1.279       .  A
C264        O273   1.275       .  A
C264        C757   1.484       .  S
O265       Ni284   1.915   1_545  S
O265        C271   1.268       .  A
O266       Ni284   1.899       .  S
O266        C268   1.268   1_565  A
Ni267       O270   1.935       .  S
Ni267       O272   1.925       .  S
C268        O278   1.290       .  A
C268        C628   1.498       .  S
O269       Ni285   1.929       .  S
O269        C275   1.282       .  A
O270        C275   1.282       .  A
C271        C597   1.448       .  S
O272        C274   1.270       .  A
O273       Ni284   1.909       .  S
C274        O280   1.264       .  A
C274        C577   1.470       .  S
C275        C568   1.488       .  S
H276        O277   0.965   1_565  S
O277       Ni285   1.910       .  S
O277       Ni279   1.881       .  S
O277       Ni284   1.881   1_545  S
O278       Ni279   1.984       .  S
Ni279       O283   1.913       .  S
Ni279       O281   1.943   1_545  S
O280       Ni285   1.908       .  S
C282        O283   1.281       .  A
C282       C1188   1.488       .  S
O287       Ni293   1.934       .  S
O287        C308   1.276       .  A
O288       Ni311   1.886       .  S
O288        C297   1.265       .  A
O289       Ni293   1.913       .  S
O289       Ni311   1.887       .  S
O289       Ni305   1.901       .  S
O289        H312   0.966       .  S
C290        O307   1.264       .  A
C290        O299   1.268       .  A
C290        C537   1.495       .  S
O291       Ni310   1.915       .  S
O291        C297   1.269       .  A
O292       Ni310   1.895       .  S
O292        C294   1.276       .  A
Ni293       O296   1.942       .  S
Ni293       O298   1.927       .  S
C294        O304   1.303       .  A
C294        C617   1.498       .  S
O295       Ni311   1.927       .  S
O295        C301   1.281       .  A
O296        C301   1.281       .  A
C297        C777   1.465       .  S
O298        C300   1.268       .  A
O299       Ni310   1.938       .  S
C300        O306   1.262       .  A
C300        C697   1.469       .  S
C301        C517   1.490       .  S
H302        O303   0.966       .  S
O303       Ni311   1.947       .  S
O303       Ni305   1.889       .  S
O303       Ni310   1.900       .  S
O304       Ni305   2.013       .  S
Ni305       O309   1.906       .  S
Ni305       O307   1.919       .  S
O306       Ni311   1.904       .  S
C308        O309   1.276       .  A
C308       C1288   1.489       .  S
O313       Ni319   1.941       .  S
O313        C334   1.280       .  A
O314       Ni337   1.903       .  S
O314        C323   1.275       .  A
O315       Ni319   1.886       .  S
O315       Ni337   1.892       .  S
O315       Ni331   1.911       .  S
O315        H338   0.967       .  S
C316        O333   1.282       .  A
C316        O325   1.278       .  A
C316        C668   1.493       .  S
O317       Ni336   1.916       .  S
O317        C323   1.272   1_655  A
O318       Ni336   1.899       .  S
O318        C320   1.261   1_655  A
Ni319       O322   1.944       .  S
Ni319       O324   1.926       .  S
C320        O330   1.287       .  A
C320        C497   1.509       .  S
O321       Ni337   1.935       .  S
O321        C327   1.286       .  A
O322        C327   1.283       .  A
C323        C488   1.460       .  S
O324        C326   1.270       .  A
O325       Ni336   1.920       .  S
C326        O332   1.269       .  A
C326        C457   1.476       .  S
C327        C528   1.497       .  S
H328        O329   0.965   1_655  S
O329       Ni337   1.919       .  S
O329       Ni331   1.873       .  S
O329       Ni336   1.871   1_455  S
O330       Ni331   1.988       .  S
Ni331       O335   1.900       .  S
Ni331       O333   1.952   1_455  S
O332       Ni337   1.927       .  S
C334        O335   1.276       .  A
C334        C848   1.470       .  S
O339       Ni345   1.937       .  S
O339        C360   1.278       .  A
O340       Ni363   1.876       .  S
O340        C349   1.259       .  A
O341       Ni345   1.916       .  S
O341       Ni363   1.892       .  S
O341       Ni357   1.925       .  S
O341        H364   0.966       .  S
C342        O359   1.279       .  A
C342        O351   1.271       .  A
C342        C437   1.498       .  S
O343       Ni362   1.915       .  S
O343        C349   1.266       .  A
O344       Ni362   1.894       .  S
O344        C346   1.268       .  A
Ni345       O348   1.941       .  S
Ni345       O350   1.933       .  S
C346        O356   1.292       .  A
C346        C508   1.500       .  S
O347       Ni363   1.928       .  S
O347        C353   1.278       .  A
O348        C353   1.282       .  A
C349        C688   1.441       .  S
O350        C352   1.270       .  A
O351       Ni362   1.913       .  S
C352        O358   1.262       .  A
C352        C748   1.479       .  S
C353        C557   1.501       .  S
H354        O355   0.966       .  S
O355       Ni363   1.916       .  S
O355       Ni357   1.885       .  S
O355       Ni362   1.890       .  S
O356       Ni357   1.987       .  S
Ni357       O361   1.903       .  S
Ni357       O359   1.937       .  S
O358       Ni363   1.908       .  S
C360        O361   1.276       .  A
C360        C828   1.475       .  S
O365       Ni371   1.948       .  S
O365        C386   1.279       .  A
O366       Ni389   1.895       .  S
O366        C375   1.266       .  A
O367       Ni371   1.921       .  S
O367       Ni389   1.898       .  S
O367       Ni383   1.902       .  S
O367        H390   0.966       .  S
C368        O385   1.262       .  A
C368        O377   1.266       .  A
C368        C588   1.488       .  S
O369       Ni388   1.903       .  S
O369        C375   1.267   1_655  A
O370       Ni388   1.888   1_455  S
O370        C372   1.271       .  A
Ni371       O374   1.952       .  S
Ni371       O376   1.923       .  S
C372        O382   1.303       .  A
C372        C417   1.494       .  S
O373       Ni389   1.924       .  S
O373        C379   1.280       .  A
O374        C379   1.283       .  A
C375        C477   1.455       .  S
O376        C378   1.267       .  A
O377       Ni388   1.933       .  S
C378        O384   1.262       .  A
C378        C448   1.467       .  S
C379        C717   1.502       .  S
H380        O381   0.966       .  S
O381       Ni389   1.942       .  S
O381       Ni383   1.890       .  S
O381       Ni388   1.904   1_455  S
O382       Ni383   2.017       .  S
Ni383       O387   1.906       .  S
Ni383       O385   1.906   1_455  S
O384       Ni389   1.902       .  S
C386        O387   1.273       .  A
C386       C1017   1.511       .  S
O391       Ni397   1.929       .  S
O391        C412   1.276       .  A
O392       Ni415   1.872       .  S
O392        C401   1.256       .  A
O393       Ni397   1.916       .  S
O393       Ni415   1.891       .  S
O393       Ni409   1.921       .  S
O393        H416   0.966       .  S
C394        O411   1.275       .  A
C394        O403   1.275       .  A
C394        C468   1.497       .  S
O395       Ni414   1.915   1_545  S
O395        C401   1.267       .  A
O396       Ni414   1.893   1_545  S
O396        C398   1.268       .  A
Ni397       O400   1.945       .  S
Ni397       O402   1.928       .  S
C398        O408   1.293       .  A
C398        C428   1.495       .  S
O399       Ni415   1.916       .  S
O399        C405   1.277       .  A
O400        C405   1.280       .  A
C401        C608   1.453       .  S
O402        C404   1.268       .  A
O403       Ni414   1.917       .  S
C404        O410   1.261       .  A
C404        C548   1.471       .  S
C405        C637   1.495       .  S
H406        O407   0.965       .  S
O407       Ni415   1.920       .  S
O407       Ni409   1.890       .  S
O407       Ni414   1.893   1_545  S
O408       Ni409   1.985       .  S
Ni409       O413   1.912       .  S
Ni409       O411   1.930   1_545  S
O410       Ni415   1.907       .  S
C412        O413   1.277       .  A
C412       C1108   1.476       .  S
C417        C418   1.412       .  A
C417        C422   1.404   1_465  A
C418        C419   1.417   1_565  A
C418       Br434   1.915       .  S
C419        C420   1.413       .  A
C419        H423   1.083       .  S
C420        C424   1.511       .  S
C420        C421   1.414   1_455  A
C421        C422   1.404       .  A
C421       Br433   1.923       .  S
C422        H425   1.078       .  S
C424        C426   1.406       .  A
C424        C430   1.416       .  A
C426        C427   1.409       .  A
C426        H431   1.083   1_545  S
C427        C428   1.414   1_455  A
C427       Br435   1.920   1_545  S
C428        C429   1.408       .  A
C429        C430   1.414   1_655  A
C429        H432   1.083       .  S
C430       Br436   1.919   1_455  S
C437        C438   1.424       .  A
C437        C442   1.412       .  A
C438        C439   1.398       .  A
C438       Br454   1.925       .  S
C439        C440   1.398       .  A
C439        H443   1.084       .  S
C440        C444   1.479   1_655  S
C440        C441   1.403   1_655  A
C441        C442   1.403   1_455  A
C441       Br453   1.917       .  S
C442        H445   1.082       .  S
C444        C446   1.405       .  A
C444        C450   1.407       .  A
C446        C447   1.403       .  A
C446        H451   1.083   1_455  S
C447        C448   1.406       .  A
C447       Br455   1.918   1_455  S
C448        C449   1.403       .  A
C449        C450   1.396       .  A
C449        H452   1.084       .  S
C450       Br456   1.919       .  S
C457        C458   1.409       .  A
C457        C462   1.405   1_455  A
C458        C459   1.396       .  A
C458       Br474   1.918       .  S
C459        C460   1.401   1_455  A
C459        H463   1.084       .  S
C460        C464   1.484       .  S
C460        C461   1.411       .  A
C461        C462   1.405       .  A
C461       Br473   1.918       .  S
C462        H465   1.083       .  S
C464        C466   1.402       .  A
C464        C470   1.407       .  A
C466        C467   1.403       .  A
C466        H471   1.084   1_655  S
C467        C468   1.421       .  A
C467       Br475   1.922       .  S
C468        C469   1.411       .  A
C469        C470   1.398       .  A
C469        H472   1.083       .  S
C470       Br476   1.920       .  S
C477        C478   1.405   1_455  A
C477        C482   1.405       .  A
C478        C479   1.389       .  A
C478       Br494   1.922       .  S
C479        C480   1.401   1_655  A
C479        H483   1.084       .  S
C480        C484   1.457       .  S
C480        C481   1.400       .  A
C481        C482   1.395       .  A
C481       Br493   1.916       .  S
C482        H485   1.084       .  S
C484        C486   1.401       .  A
C484        C490   1.400   1_455  A
C486        C487   1.392       .  A
C486        H491   1.084       .  S
C487        C488   1.407       .  A
C487       Br495   1.919       .  S
C488        C489   1.405   1_455  A
C489        C490   1.389       .  A
C489        H492   1.084       .  S
C490       Br496   1.916       .  S
C497        C498   1.421   1_455  A
C497        C502   1.410       .  A
C498        C499   1.405       .  A
C498       Br514   1.924       .  S
C499        C500   1.403   1_655  A
C499        H503   1.084       .  S
C500        C504   1.515       .  S
C500        C501   1.418       .  A
C501        C502   1.419       .  A
C501       Br513   1.917       .  S
C502        H505   1.083       .  S
C504        C506   1.413       .  A
C504        C510   1.415       .  A
C506        C507   1.416   1_455  A
C506        H511   1.083       .  S
C507        C508   1.411       .  A
C507       Br515   1.916       .  S
C508        C509   1.409   1_655  A
C509        C510   1.407       .  A
C509        H512   1.084       .  S
C510       Br516   1.916       .  S
C517        C518   1.412       .  A
C517        C522   1.405       .  A
C518        C519   1.407       .  A
C518       Br534   1.919       .  S
C519        C520   1.407       .  A
C519        H523   1.083       .  S
C520        C524   1.499       .  S
C520        C521   1.414       .  A
C521        C522   1.405       .  A
C521       Br533   1.919       .  S
C522        H525   1.084       .  S
C524        C526   1.403       .  A
C524        C530   1.414       .  A
C526        C527   1.401       .  A
C526        H531   1.084       .  S
C527        C528   1.416       .  A
C527       Br535   1.921       .  S
C528        C529   1.408       .  A
C529        C530   1.411       .  A
C529        H532   1.083       .  S
C530       Br536   1.917       .  S
C537        C538   1.416   1_565  A
C537        C542   1.411       .  A
C538        C539   1.400       .  A
C538       Br554   1.918       .  S
C539        C540   1.402       .  A
C539        H543   1.080       .  S
C540        C544   1.490       .  S
C540        C541   1.408       .  A
C541        C542   1.406   1_545  A
C541       Br553   1.918       .  S
C542        H545   1.083       .  S
C544        C546   1.406       .  A
C544        C550   1.411       .  A
C546        C547   1.402       .  A
C546        H551   1.083   1_545  S
C547        C548   1.407       .  A
C547       Br555   1.918   1_545  S
C548        C549   1.404       .  A
C549        C550   1.401       .  A
C549        H552   1.084       .  S
C550       Br556   1.918       .  S
C557        C558   1.420       .  A
C557        C562   1.410       .  A
C558        C559   1.406       .  A
C558       Br574   1.922       .  S
C559        C560   1.404       .  A
C559        H563   1.084       .  S
C560        C564   1.493       .  S
C560        C561   1.409       .  A
C561        C562   1.403       .  A
C561       Br573   1.921       .  S
C562        H565   1.083       .  S
C564        C566   1.406       .  A
C564        C570   1.411       .  A
C566        C567   1.406       .  A
C566        H571   1.083       .  S
C567        C568   1.414       .  A
C567       Br575   1.921       .  S
C568        C569   1.405       .  A
C569        C570   1.401       .  A
C569        H572   1.084       .  S
C570       Br576   1.920       .  S
C577        C578   1.409       .  A
C577        C582   1.404       .  A
C578        C579   1.398   1_545  A
C578       Br594   1.917   1_545  S
C579        C580   1.401   1_565  A
C579        H583   1.084       .  S
C580        C584   1.475       .  S
C580        C581   1.407       .  A
C581        C582   1.401       .  A
C581       Br593   1.918       .  S
C582        H585   1.084       .  S
C584        C586   1.399       .  A
C584        C590   1.403   1_545  A
C586        C587   1.397       .  A
C586        H591   1.084       .  S
C587        C588   1.417   1_545  A
C587       Br595   1.917       .  S
C588        C589   1.411       .  A
C589        C590   1.400       .  A
C589        H592   1.083       .  S
C590       Br596   1.917       .  S
C597        C598   1.407   1_545  A
C597        C602   1.401       .  A
C598        C599   1.390   1_565  A
C598       Br614   1.921       .  S
C599        C600   1.398       .  A
C599        H603   1.084   1_545  S
C600        C604   1.446       .  S
C600        C601   1.400       .  A
C601        C602   1.385       .  A
C601       Br613   1.920       .  S
C602        H605   1.084       .  S
C604        C606   1.394       .  A
C604        C610   1.404       .  A
C606        C607   1.389       .  A
C606        H611   1.084       .  S
C607        C608   1.414       .  A
C607       Br615   1.921       .  S
C608        C609   1.399       .  A
C609        C610   1.385       .  A
C609        H612   1.084       .  S
C610       Br616   1.921       .  S
C617        C618   1.412   1_565  A
C617        C622   1.404   1_565  A
C618        C619   1.420       .  A
C618       Br634   1.916   1_545  S
C619        C620   1.417       .  A
C619        H623   1.083       .  S
C620        C624   1.512       .  S
C620        C621   1.414       .  A
C621        C622   1.401       .  A
C621       Br633   1.923       .  S
C622        H625   1.081   1_545  S
C624        C626   1.404       .  A
C624        C630   1.418       .  A
C626        C627   1.406       .  A
C626        H631   1.083   1_545  S
C627        C628   1.414       .  A
C627       Br635   1.915   1_545  S
C628        C629   1.410       .  A
C629        C630   1.416       .  A
C629        H632   1.083       .  S
C630       Br636   1.920       .  S
C637        C638   1.417       .  A
C637        C642   1.411       .  A
C638        C639   1.403       .  A
C638       Br654   1.921       .  S
C639        C640   1.402       .  A
C639        H643   1.084       .  S
C640        C644   1.486       .  S
C640        C641   1.406       .  A
C641        C642   1.404       .  A
C641       Br653   1.917       .  S
C642        H645   1.083       .  S
C644        C646   1.404       .  A
C644        C650   1.408       .  A
C646        C647   1.403       .  A
C646        H651   1.084       .  S
C647        C648   1.411       .  A
C647       Br655   1.918       .  S
C648        C649   1.406       .  A
C649        C650   1.404       .  A
C649        H652   1.084       .  S
C650       Br656   1.917       .  S
C657        C658   1.419       .  A
C657        C662   1.411       .  A
C658        C659   1.394       .  A
C658       Br674   1.923       .  S
C659        C660   1.399       .  A
C659        H663   1.084       .  S
C660        C664   1.487       .  S
C660        C661   1.408       .  A
C661        C662   1.409       .  A
C661       Br673   1.916       .  S
C662        H665   1.083       .  S
C664        C666   1.403       .  A
C664        C670   1.407       .  A
C666        C667   1.406       .  A
C666        H671   1.083       .  S
C667        C668   1.418       .  A
C667       Br675   1.920       .  S
C668        C669   1.407       .  A
C669        C670   1.400       .  A
C669        H672   1.083       .  S
C670       Br676   1.919       .  S
C677        C678   1.400       .  A
C677        C682   1.398       .  A
C678        C679   1.389       .  A
C678       Br694   1.919       .  S
C679        C680   1.402       .  A
C679        H683   1.084       .  S
C680        C684   1.450       .  S
C680        C681   1.403       .  A
C681        C682   1.386       .  A
C681       Br693   1.920       .  S
C682        H685   1.084       .  S
C684        C686   1.401       .  A
C684        C690   1.402       .  A
C686        C687   1.387       .  A
C686        H691   1.084       .  S
C687        C688   1.400       .  A
C687       Br695   1.920       .  S
C688        C689   1.402       .  A
C689        C690   1.389       .  A
C689        H692   1.084       .  S
C690       Br696   1.921       .  S
C697        C698   1.407       .  A
C697        C702   1.404       .  A
C698        C699   1.403       .  A
C698       Br714   1.917       .  S
C699        C700   1.404       .  A
C699        H703   1.083       .  S
C700        C704   1.482       .  S
C700        C701   1.408       .  A
C701        C702   1.399       .  A
C701       Br713   1.918       .  S
C702        H705   1.084       .  S
C704        C706   1.399       .  A
C704        C710   1.405       .  A
C706        C707   1.398       .  A
C706        H711   1.084       .  S
C707        C708   1.421       .  A
C707       Br715   1.922       .  S
C708        C709   1.411       .  A
C709        C710   1.405       .  A
C709        H712   1.082       .  S
C710       Br716   1.916       .  S
C717        C718   1.418       .  A
C717        C722   1.411       .  A
C718        C719   1.406       .  A
C718       Br734   1.920       .  S
C719        C720   1.404       .  A
C719        H723   1.084       .  S
C720        C724   1.496       .  S
C720        C721   1.408       .  A
C721        C722   1.407       .  A
C721       Br733   1.918       .  S
C722        H725   1.083       .  S
C724        C726   1.405       .  A
C724        C730   1.410       .  A
C726        C727   1.406       .  A
C726        H731   1.083       .  S
C727        C728   1.413       .  A
C727       Br735   1.918       .  S
C728        C729   1.406       .  A
C729        C730   1.407       .  A
C729        H732   1.079       .  S
C730       Br736   1.917       .  S
C737        C738   1.411       .  A
C737        C742   1.405       .  A
C738        C739   1.412       .  A
C738       Br754   1.916       .  S
C739        C740   1.408       .  A
C739        H743   1.083       .  S
C740        C744   1.493       .  S
C740        C741   1.408       .  A
C741        C742   1.400       .  A
C741       Br753   1.920       .  S
C742        H745   1.083       .  S
C744        C746   1.406       .  A
C744        C750   1.411       .  A
C746        C747   1.405       .  A
C746        H751   1.083       .  S
C747        C748   1.410       .  A
C747       Br755   1.919       .  S
C748        C749   1.404       .  A
C749        C750   1.404       .  A
C749        H752   1.084       .  S
C750       Br756   1.917       .  S
C757        C758   1.414       .  A
C757        C762   1.406       .  A
C758        C759   1.404       .  A
C758       Br774   1.919       .  S
C759        C760   1.405       .  A
C759        H763   1.083       .  S
C760        C764   1.479       .  S
C760        C761   1.406       .  A
C761        C762   1.396       .  A
C761       Br773   1.920       .  S
C762        H765   1.084       .  S
C764        C766   1.395       .  A
C764        C770   1.408       .  A
C766        C767   1.392       .  A
C766        H771   1.084       .  S
C767        C768   1.421       .  A
C767       Br775   1.921       .  S
C768        C769   1.411       .  A
C769        C770   1.407       .  A
C769        H772   1.083       .  S
C770       Br776   1.917       .  S
C777        C778   1.407       .  A
C777        C782   1.407       .  A
C778        C779   1.391       .  A
C778       Br794   1.921       .  S
C779        C780   1.403       .  A
C779        H783   1.084       .  S
C780        C784   1.468       .  S
C780        C781   1.405       .  A
C781        C782   1.393       .  A
C781       Br793   1.919       .  S
C782        H785   1.084       .  S
C784        C786   1.404       .  A
C784        C790   1.404       .  A
C786        C787   1.394       .  A
C786        H791   1.084       .  S
C787        C788   1.408       .  A
C787       Br795   1.918       .  S
C788        C789   1.406       .  A
C789        C790   1.391       .  A
C789        H792   1.084       .  S
C790       Br796   1.919       .  S
C797        C798   1.424       .  A
C797        C802   1.411       .  A
C798        C799   1.403       .  A
C798       Br814   1.925       .  S
C799        C800   1.401       .  A
C799        H803   1.084       .  S
C800        C804   1.512       .  S
C800        C801   1.418       .  A
C801        C802   1.419       .  A
C801       Br813   1.918       .  S
C802        H805   1.083       .  S
C804        C806   1.415       .  A
C804        C810   1.414       .  A
C806        C807   1.417       .  A
C806        H811   1.083       .  S
C807        C808   1.414       .  A
C807       Br815   1.918       .  S
C808        C809   1.409       .  A
C809        C810   1.404       .  A
C809        H812   1.084       .  S
C810       Br816   1.922       .  S
C817        C818   1.418       .  A
C817        C822   1.405   1_455  A
C818        C819   1.400       .  A
C818       Br834   1.923       .  S
C819        C820   1.401   1_455  A
C819        H823   1.084       .  S
C820        C824   1.492       .  S
C820        C821   1.413       .  A
C821        C822   1.405       .  A
C821       Br833   1.918       .  S
C822        H825   1.083       .  S
C824        C826   1.407   1_655  A
C824        C830   1.412       .  A
C826        C827   1.402   1_455  A
C826        H831   1.083       .  S
C827        C828   1.406       .  A
C827       Br835   1.916   1_655  S
C828        C829   1.404       .  A
C829        C830   1.403       .  A
C829        H832   1.084       .  S
C830       Br836   1.920       .  S
C837        C838   1.410       .  A
C837        C842   1.404       .  A
C838        C839   1.395       .  A
C838       Br854   1.922       .  S
C839        C840   1.402       .  A
C839        H843   1.084   1_556  S
C840        C844   1.484   1_656  S
C840        C841   1.412   1_655  A
C841        C842   1.402   1_455  A
C841       Br853   1.917       .  S
C842        H845   1.084   1_655  S
C844        C846   1.408       .  A
C844        C850   1.409   1_455  A
C846        C847   1.404       .  A
C846        H851   1.083       .  S
C847        C848   1.406       .  A
C847       Br855   1.916       .  S
C848        C849   1.402   1_455  A
C849        C850   1.396       .  A
C849        H852   1.084       .  S
C850       Br856   1.921       .  S
C857        C858   1.414       .  A
C857        C862   1.411       .  A
C858        C859   1.419       .  A
C858       Br874   1.915   1_655  S
C859        C860   1.415       .  A
C859        H863   1.083       .  S
C860        C864   1.517       .  S
C860        C861   1.415       .  A
C861        C862   1.403       .  A
C861       Br873   1.924       .  S
C862        H865   1.084       .  S
C864        C866   1.414       .  A
C864        C870   1.416   1_655  A
C866        C867   1.414       .  A
C866        H871   1.083       .  S
C867        C868   1.411       .  A
C867       Br875   1.917       .  S
C868        C869   1.409   1_655  A
C869        C870   1.405       .  A
C869        H872   1.083       .  S
C870       Br876   1.921       .  S
C877        C878   1.418       .  A
C877        C882   1.415       .  A
C878        C879   1.413       .  A
C878       Br894   1.919       .  S
C879        C880   1.411       .  A
C879        H883   1.083       .  S
C880        C884   1.500       .  S
C880        C881   1.407       .  A
C881        C882   1.400       .  A
C881       Br893   1.922       .  S
C882        H885   1.083       .  S
C884        C886   1.405       .  A
C884        C890   1.417       .  A
C886        C887   1.404       .  A
C886        H891   1.084       .  S
C887        C888   1.412       .  A
C887       Br895   1.919       .  S
C888        C889   1.406       .  A
C889        C890   1.408       .  A
C889        H892   1.084       .  S
C890       Br896   1.920       .  S
C897        C898   1.412       .  A
C897        C902   1.405       .  A
C898        C899   1.401       .  A
C898       Br914   1.920       .  S
C899        C900   1.403       .  A
C899        H903   1.084       .  S
C900        C904   1.480       .  S
C900        C901   1.408       .  A
C901        C902   1.400       .  A
C901       Br913   1.919       .  S
C902        H905   1.084       .  S
C904        C906   1.397       .  A
C904        C910   1.408       .  A
C906        C907   1.394       .  A
C906        H911   1.084       .  S
C907        C908   1.420       .  A
C907       Br915   1.923       .  S
C908        C909   1.409       .  A
C909        C910   1.405       .  A
C909        H912   1.083       .  S
C910       Br916   1.917       .  S
C917        C918   1.411       .  A
C917        C922   1.413       .  A
C918        C919   1.406       .  A
C918       Br934   1.915       .  S
C919        C920   1.407       .  A
C919        H923   1.083       .  S
C920        C924   1.478   1_556  S
C920        C921   1.402       .  A
C921        C922   1.392       .  A
C921       Br933   1.922   1_556  S
C922        H925   1.083       .  S
C924        C926   1.400       .  A
C924        C930   1.412       .  A
C926        C927   1.396       .  A
C926        H931   1.084       .  S
C927        C928   1.410       .  A
C927       Br935   1.921       .  S
C928        C929   1.400       .  A
C929        C930   1.401       .  A
C929        H932   1.083       .  S
C930       Br936   1.918       .  S
C937        C938   1.408       .  A
C937        C942   1.395       .  A
C938        C939   1.384       .  A
C938       Br954   1.920       .  S
C939        C940   1.393       .  A
C939        H943   1.084       .  S
C940        C944   1.447       .  S
C940        C941   1.409       .  A
C941        C942   1.390       .  A
C941       Br953   1.921       .  S
C942        H945   1.084       .  S
C944        C946   1.399       .  A
C944        C950   1.402       .  A
C946        C947   1.386       .  A
C946        H951   1.084       .  S
C947        C948   1.400       .  A
C947       Br955   1.919       .  S
C948        C949   1.400       .  A
C949        C950   1.388       .  A
C949        H952   1.084       .  S
C950       Br956   1.919       .  S
C957        C958   1.409       .  A
C957        C962   1.404       .  A
C958        C959   1.404       .  A
C958       Br974   1.919       .  S
C959        C960   1.404       .  A
C959        H963   1.083       .  S
C960        C964   1.483       .  S
C960        C961   1.408       .  A
C961        C962   1.401       .  A
C961       Br973   1.919       .  S
C962        H965   1.084       .  S
C964        C966   1.401       .  A
C964        C970   1.409       .  A
C966        C967   1.397       .  A
C966        H971   1.084       .  S
C967        C968   1.411       .  A
C967       Br975   1.921       .  S
C968        C969   1.407       .  A
C969        C970   1.408       .  A
C969        H972   1.083       .  S
C970       Br976   1.916       .  S
C977        C978   1.416       .  A
C977        C982   1.407       .  A
C978        C979   1.408       .  A
C978       Br994   1.919       .  S
C979        C980   1.407       .  A
C979        H983   1.083       .  S
C980        C984   1.515       .  S
C980        C981   1.418       .  A
C981        C982   1.414       .  A
C981       Br993   1.917       .  S
C982        H985   1.083       .  S
C984        C986   1.407       .  A
C984        C990   1.418       .  A
C986        C987   1.406       .  A
C986        H991   1.083       .  S
C987        C988   1.415       .  A
C987       Br995   1.920       .  S
C988        C989   1.410       .  A
C989        C990   1.418       .  A
C989        H992   1.083       .  S
C990       Br996   1.917       .  S
C997        C998   1.411       .  A
C997       C1002   1.408       .  A
C998        C999   1.403       .  A
C998      Br1014   1.918       .  S
C999       C1000   1.404       .  A
C999       H1003   1.084       .  S
C1000      C1004   1.489       .  S
C1000      C1001   1.410       .  A
C1001      C1002   1.403       .  A
C1001     Br1013   1.919       .  S
C1002      H1005   1.084       .  S
C1004      C1006   1.401       .  A
C1004      C1010   1.409       .  A
C1006      C1007   1.404       .  A
C1006      H1011   1.084       .  S
C1007      C1008   1.420       .  A
C1007     Br1015   1.919       .  S
C1008      C1009   1.409       .  A
C1009      C1010   1.403       .  A
C1009      H1012   1.083       .  S
C1010     Br1016   1.919       .  S
C1017      C1018   1.420   1_565  A
C1017      C1022   1.415       .  A
C1018      C1019   1.410       .  A
C1018     Br1034   1.920       .  S
C1019      C1020   1.408       .  A
C1019      H1023   1.083   1_455  S
C1020      C1024   1.502       .  S
C1020      C1021   1.408   1_545  A
C1021      C1022   1.404       .  A
C1021     Br1033   1.920       .  S
C1022      H1025   1.083       .  S
C1024      C1026   1.413   1_445  A
C1024      C1030   1.410       .  A
C1026      C1027   1.414   1_565  A
C1026      H1031   1.083       .  S
C1027      C1028   1.410       .  A
C1027     Br1035   1.916   1_545  S
C1028      C1029   1.406       .  A
C1029      C1030   1.400   1_655  A
C1029      H1032   1.084       .  S
C1030     Br1036   1.920       .  S
C1037      C1038   1.410       .  A
C1037      C1042   1.403       .  A
C1038      C1039   1.403       .  A
C1038     Br1054   1.918       .  S
C1039      C1040   1.404       .  A
C1039      H1043   1.083       .  S
C1040      C1044   1.483       .  S
C1040      C1041   1.408   1_655  A
C1041      C1042   1.400   1_455  A
C1041     Br1053   1.917       .  S
C1042      H1045   1.084   1_655  S
C1044      C1046   1.401       .  A
C1044      C1050   1.407   1_655  A
C1046      C1047   1.398   1_655  A
C1046      H1051   1.084       .  S
C1047      C1048   1.415       .  A
C1047     Br1055   1.923       .  S
C1048      C1049   1.407       .  A
C1049      C1050   1.406       .  A
C1049      H1052   1.083       .  S
C1050     Br1056   1.915       .  S
C1057      C1058   1.413   1_655  A
C1057      C1062   1.405       .  A
C1058      C1059   1.391       .  A
C1058     Br1074   1.922       .  S
C1059      C1060   1.396   1_455  A
C1059      H1063   1.084       .  S
C1060      C1064   1.449       .  S
C1060      C1061   1.400       .  A
C1061      C1062   1.387       .  A
C1061     Br1073   1.920       .  S
C1062      H1065   1.084       .  S
C1064      C1066   1.395       .  A
C1064      C1070   1.398       .  A
C1066      C1067   1.391       .  A
C1066      H1071   1.084   1_655  S
C1067      C1068   1.419       .  A
C1067     Br1075   1.925   1_655  S
C1068      C1069   1.407       .  A
C1069      C1070   1.386       .  A
C1069      H1072   1.082       .  S
C1070     Br1076   1.920       .  S
C1077      C1078   1.419       .  A
C1077      C1082   1.409       .  A
C1078      C1079   1.408       .  A
C1078     Br1094   1.921       .  S
C1079      C1080   1.403       .  A
C1079      H1083   1.083       .  S
C1080      C1084   1.496       .  S
C1080      C1081   1.409       .  A
C1081      C1082   1.407       .  A
C1081     Br1093   1.918       .  S
C1082      H1085   1.083       .  S
C1084      C1086   1.402       .  A
C1084      C1090   1.409       .  A
C1086      C1087   1.406       .  A
C1086      H1091   1.084       .  S
C1087      C1088   1.421       .  A
C1087     Br1095   1.922       .  S
C1088      C1089   1.411       .  A
C1089      C1090   1.408       .  A
C1089      H1092   1.082       .  S
C1090     Br1096   1.916       .  S
C1097      C1098   1.413       .  A
C1097      C1102   1.406   1_465  A
C1098      C1099   1.400   1_455  A
C1098     Br1114   1.920       .  S
C1099      C1100   1.401   1_565  A
C1099      H1103   1.084   1_556  S
C1100      C1104   1.486   1_556  S
C1100      C1101   1.410       .  A
C1101      C1102   1.407       .  A
C1101     Br1113   1.918       .  S
C1102      H1105   1.082       .  S
C1104      C1106   1.409       .  A
C1104      C1110   1.406       .  A
C1106      C1107   1.408       .  A
C1106      H1111   1.083   1_655  S
C1107      C1108   1.406       .  A
C1107     Br1115   1.916   1_655  S
C1108      C1109   1.405       .  A
C1109      C1110   1.397       .  A
C1109      H1112   1.084       .  S
C1110     Br1116   1.919   1_545  S
C1117      C1118   1.415   1_545  A
C1117      C1122   1.411       .  A
C1118      C1119   1.416       .  A
C1118     Br1134   1.916   1_655  S
C1119      C1120   1.413   1_565  A
C1119      H1123   1.083       .  S
C1120      C1124   1.511       .  S
C1120      C1121   1.413       .  A
C1121      C1122   1.404       .  A
C1121     Br1133   1.923       .  S
C1122      H1125   1.084       .  S
C1124      C1126   1.412       .  A
C1124      C1130   1.413   1_645  A
C1126      C1127   1.414       .  A
C1126      H1131   1.083       .  S
C1127      C1128   1.412       .  A
C1127     Br1135   1.916       .  S
C1128      C1129   1.412   1_655  A
C1129      C1130   1.406   1_545  A
C1129      H1132   1.084       .  S
C1130     Br1136   1.922       .  S
C1137      C1138   1.411       .  A
C1137      C1142   1.403       .  A
C1138      C1139   1.405       .  A
C1138     Br1154   1.914       .  S
C1139      C1140   1.403       .  A
C1139      H1143   1.083       .  S
C1140      C1144   1.480   1_455  S
C1140      C1141   1.409       .  A
C1141      C1142   1.397       .  A
C1141     Br1153   1.922       .  S
C1142      H1145   1.084       .  S
C1144      C1146   1.405   1_655  A
C1144      C1150   1.408       .  A
C1146      C1147   1.404       .  A
C1146      H1151   1.083       .  S
C1147      C1148   1.407   1_455  A
C1147     Br1155   1.917       .  S
C1148      C1149   1.403       .  A
C1149      C1150   1.397       .  A
C1149      H1152   1.084       .  S
C1150     Br1156   1.919       .  S
C1157      C1158   1.413       .  A
C1157      C1162   1.408       .  A
C1158      C1159   1.413       .  A
C1158     Br1174   1.917       .  S
C1159      C1160   1.409       .  A
C1159      H1163   1.083       .  S
C1160      C1164   1.509       .  S
C1160      C1161   1.413       .  A
C1161      C1162   1.410       .  A
C1161     Br1173   1.918       .  S
C1162      H1165   1.084       .  S
C1164      C1166   1.409       .  A
C1164      C1170   1.412       .  A
C1166      C1167   1.415       .  A
C1166      H1171   1.083       .  S
C1167      C1168   1.417       .  A
C1167     Br1175   1.917       .  S
C1168      C1169   1.409       .  A
C1169      C1170   1.408       .  A
C1169      H1172   1.083       .  S
C1170     Br1176   1.919       .  S
C1177      C1178   1.412   1_565  A
C1177      C1182   1.404       .  A
C1178      C1179   1.400       .  A
C1178     Br1194   1.915       .  S
C1179      C1180   1.399       .  A
C1179      H1183   1.084       .  S
C1180      C1184   1.486       .  S
C1180      C1181   1.411   1_545  A
C1181      C1182   1.408       .  A
C1181     Br1193   1.917       .  S
C1182      H1185   1.083       .  S
C1184      C1186   1.400       .  A
C1184      C1190   1.409       .  A
C1186      C1187   1.402       .  A
C1186      H1191   1.084       .  S
C1187      C1188   1.419       .  A
C1187     Br1195   1.923       .  S
C1188      C1189   1.405       .  A
C1189      C1190   1.404       .  A
C1189      H1192   1.083       .  S
C1190     Br1196   1.916   1_545  S
C1197      C1198   1.412       .  A
C1197      C1202   1.410       .  A
C1198      C1199   1.403       .  A
C1198     Br1214   1.913       .  S
C1199      C1200   1.404       .  A
C1199      H1203   1.083   1_565  S
C1200      C1204   1.477   1_565  S
C1200      C1201   1.406       .  A
C1201      C1202   1.391       .  A
C1201     Br1213   1.924       .  S
C1202      H1205   1.084       .  S
C1204      C1206   1.403   1_545  A
C1204      C1210   1.407       .  A
C1206      C1207   1.400   1_565  A
C1206      H1211   1.084       .  S
C1207      C1208   1.414       .  A
C1207     Br1215   1.922   1_545  S
C1208      C1209   1.404       .  A
C1209      C1210   1.394       .  A
C1209      H1212   1.084       .  S
C1210     Br1216   1.920       .  S
C1217      C1218   1.404   1_565  A
C1217      C1222   1.396       .  A
C1218      C1219   1.390   1_545  A
C1218     Br1234   1.919       .  S
C1219      C1220   1.401       .  A
C1219      H1223   1.084   1_565  S
C1220      C1224   1.460       .  S
C1220      C1221   1.411       .  A
C1221      C1222   1.387       .  A
C1221     Br1233   1.924       .  S
C1222      H1225   1.084       .  S
C1224      C1226   1.403       .  A
C1224      C1230   1.409   1_565  A
C1226      C1227   1.393       .  A
C1226      H1231   1.084       .  S
C1227      C1228   1.404       .  A
C1227     Br1235   1.917       .  S
C1228      C1229   1.396   1_565  A
C1229      C1230   1.384       .  A
C1229      H1232   1.084       .  S
C1230     Br1236   1.923       .  S
C1237      C1238   1.410       .  A
C1237      C1242   1.403       .  A
C1238      C1239   1.400       .  A
C1238     Br1254   1.919       .  S
C1239      C1240   1.402       .  A
C1239      H1243   1.084       .  S
C1240      C1244   1.483       .  S
C1240      C1241   1.409       .  A
C1241      C1242   1.402       .  A
C1241     Br1253   1.916       .  S
C1242      H1245   1.084       .  S
C1244      C1246   1.401       .  A
C1244      C1250   1.403       .  A
C1246      C1247   1.402       .  A
C1246      H1251   1.084       .  S
C1247      C1248   1.421       .  A
C1247     Br1255   1.922       .  S
C1248      C1249   1.414       .  A
C1249      C1250   1.402       .  A
C1249      H1252   1.082       .  S
C1250     Br1256   1.918       .  S
C1257      C1258   1.424       .  A
C1257      C1262   1.411       .  A
C1258      C1259   1.404       .  A
C1258     Br1274   1.924       .  S
C1259      C1260   1.401       .  A
C1259      H1263   1.084       .  S
C1260      C1264   1.497       .  S
C1260      C1261   1.410       .  A
C1261      C1262   1.411       .  A
C1261     Br1273   1.916       .  S
C1262      H1265   1.083       .  S
C1264      C1266   1.405       .  A
C1264      C1270   1.410       .  A
C1266      C1267   1.409       .  A
C1266      H1271   1.083       .  S
C1267      C1268   1.416       .  A
C1267     Br1275   1.916       .  S
C1268      C1269   1.409       .  A
C1269      C1270   1.404       .  A
C1269      H1272   1.084       .  S
C1270     Br1276   1.919       .  S
C1277      C1278   1.418       .  A
C1277      C1282   1.406       .  A
C1278      C1279   1.394   1_556  A
C1278     Br1294   1.924       .  S
C1279      C1280   1.396       .  A
C1279      H1283   1.084       .  S
C1280      C1284   1.485       .  S
C1280      C1281   1.413   1_554  A
C1281      C1282   1.408       .  A
C1281     Br1293   1.917   1_545  S
C1282      H1285   1.083   1_545  S
C1284      C1286   1.400       .  A
C1284      C1290   1.411       .  A
C1286      C1287   1.401   1_545  A
C1286      H1291   1.084   1_545  S
C1287      C1288   1.418       .  A
C1287     Br1295   1.922       .  S
C1288      C1289   1.406   1_565  A
C1289      C1290   1.403       .  A
C1289      H1292   1.083       .  S
C1290     Br1296   1.917       .  S
C1297      C1298   1.409   1_565  A
C1297      C1302   1.403       .  A
C1298      C1299   1.403       .  A
C1298     Br1314   1.916       .  S
C1299      C1300   1.405       .  A
C1299      H1303   1.083       .  S
C1300      C1304   1.481       .  S
C1300      C1301   1.408   1_545  A
C1301      C1302   1.398       .  A
C1301     Br1313   1.920       .  S
C1302      H1305   1.084       .  S
C1304      C1306   1.402       .  A
C1304      C1310   1.405       .  A
C1306      C1307   1.405       .  A
C1306      H1311   1.083       .  S
C1307      C1308   1.418       .  A
C1307     Br1315   1.915       .  S
C1308      C1309   1.409       .  A
C1309      C1310   1.395       .  A
C1309      H1312   1.083       .  S
C1310     Br1316   1.920       .  S
C1317      C1318   1.414       .  A
C1317      C1322   1.402       .  A
C1318      C1319   1.391       .  A
C1318     Br1334   1.923       .  S
C1319      C1320   1.395       .  A
C1319      H1323   1.084       .  S
C1320      C1324   1.451       .  S
C1320      C1321   1.402       .  A
C1321      C1322   1.389       .  A
C1321     Br1333   1.920       .  S
C1322      H1325   1.084       .  S
C1324      C1326   1.399       .  A
C1324      C1330   1.398       .  A
C1326      C1327   1.389       .  A
C1326      H1331   1.084       .  S
C1327      C1328   1.408       .  A
C1327     Br1335   1.922       .  S
C1328      C1329   1.407       .  A
C1329      C1330   1.389       .  A
C1329      H1332   1.084       .  S
C1330     Br1336   1.918       .  S
C1337      C1338   1.412       .  A
C1337      C1342   1.405       .  A
C1338      C1339   1.403       .  A
C1338     Br1354   1.915       .  S
C1339      C1340   1.403       .  A
C1339      H1343   1.084       .  S
C1340      C1344   1.481       .  S
C1340      C1341   1.408       .  A
C1341      C1342   1.396       .  A
C1341     Br1353   1.920       .  S
C1342      H1345   1.084       .  S
C1344      C1346   1.406       .  A
C1344      C1350   1.407       .  A
C1346      C1347   1.408       .  A
C1346      H1351   1.083       .  S
C1347      C1348   1.413       .  A
C1347     Br1355   1.918       .  S
C1348      C1349   1.406       .  A
C1349      C1350   1.390       .  A
C1349      H1352   1.084       .  S
C1350     Br1356   1.924       .  S
C1357      C1358   1.412       .  A
C1357      C1362   1.409       .  A
C1358      C1359   1.414       .  A
C1358     Br1374   1.916       .  S
C1359      C1360   1.413       .  A
C1359      H1363   1.083       .  S
C1360      C1364   1.519   1_545  S
C1360      C1361   1.419   1_545  A
C1361      C1362   1.407   1_565  A
C1361     Br1373   1.923       .  S
C1362      H1365   1.084   1_545  S
C1364      C1366   1.411       .  A
C1364      C1370   1.421   1_565  A
C1366      C1367   1.411       .  A
C1366      H1371   1.082       .  S
C1367      C1368   1.412       .  A
C1367     Br1375   1.918       .  S
C1368      C1369   1.405   1_565  A
C1369      C1370   1.409       .  A
C1369      H1372   1.084       .  S
C1370     Br1376   1.922       .  S
