geometry optimzed in LAMMPS
_audit_creation_date              2020-12-01 
_audit_creation_method            'lammps2cif' 
_symmetry_space_group_name_H-M    'P1' 
_symmetry_Int_Tables_number       1 
_symmetry_cell_setting            triclinic 
loop_ 
_symmetry_equiv_pos_as_xyz 
  x,y,z 
_cell_length_a                    57.04167029 
_cell_length_b                    56.621562983258755 
_cell_length_c                    27.56522085415367 
_cell_angle_alpha                 89.8937455497982 
_cell_angle_beta                  89.8576365193655 
_cell_angle_gamma                 119.6351269142892 
loop_ 
_atom_site_label 
_atom_site_type_symbol 
_atom_site_fract_x 
_atom_site_fract_y 
_atom_site_fract_z 
_atom_site_charge 
Fe1        Fe  0.43044811  0.10183777  0.22411773     1.65800
Fe2        Fe  0.38710067  0.10364513  0.14167210     1.73200
Fe3        Fe  0.40662003  0.14526143  0.24127195     1.54400
O4          O  0.40932341  0.12842294  0.30551995    -0.81900
O5          O  0.39562998  0.14206847  0.11732801    -0.80200
O6          O  0.41187015  0.09116136  0.29076038    -0.84400
O7          O  0.45832962  0.13800373  0.25247510    -0.79200
O8          O  0.36564988  0.12206142  0.24526361    -0.81000
O9          O  0.42211220  0.10984113  0.10293224    -0.83800
C10         C  0.46364567  0.16235257  0.25758323     0.97000
C11         C  0.41008216  0.10752878  0.31979436     1.04400
O12         O  0.40805157  0.11703717  0.20178871    -1.12700
O13         O  0.37362414  0.06255126  0.15766440    -0.75200
O14         O  0.40577712  0.06268113  0.20230423    -0.78700
O15         O  0.44783057  0.17054260  0.24298654    -0.79400
C16         C  0.38342078  0.05005517  0.18095710     0.95900
O17         O  0.45111411  0.11208311  0.15990396    -0.77300
O18         O  0.35171486  0.09766914  0.17686874    -0.82500
C19         C  0.40043518  0.16402583  0.13821847     0.98500
C20         C  0.34707363  0.10524282  0.21785510     1.04400
O21         O  0.40414171  0.16708284  0.18353480    -0.78200
C22         C  0.44548557  0.11406905  0.11609231     1.02700
Fe23       Fe  0.33453267  0.41377975  0.78665079     1.65800
Fe24       Fe  0.28963108  0.41550276  0.86563172     1.73200
Fe25       Fe  0.26799285  0.37433945  0.76675881     1.54400
O26         O  0.28826894  0.39464452  0.70457798    -0.81900
O27         O  0.26042995  0.37759495  0.89032349    -0.80200
O28         O  0.32913364  0.42944021  0.72286947    -0.84400
O29         O  0.32600947  0.37929409  0.74795363    -0.79200
O30         O  0.24924811  0.39694737  0.76475662    -0.81000
O31         O  0.31836050  0.40919304  0.90427215    -0.83800
C32         C  0.30589023  0.35590074  0.74187487     0.97000
C33         C  0.31002767  0.41616620  0.69312412     1.04400
O34         O  0.29711062  0.40110546  0.80670792    -1.12700
O35         O  0.31697699  0.45551222  0.84657284    -0.75200
O36         O  0.35102259  0.45158296  0.81855757    -0.78700
O37         O  0.28372396  0.34859854  0.76308010    -0.79400
C38         C  0.34098311  0.46620136  0.83091931     0.95900
O39         O  0.34039283  0.39801023  0.84907762    -0.77300
O40         O  0.26002959  0.42198775  0.83197161    -0.82500
C41         C  0.24402494  0.35532050  0.87009803     0.98500
C42         C  0.24713099  0.41373869  0.79205145     1.04400
O43         O  0.24459132  0.35173574  0.82472798    -0.78200
C44         C  0.33434105  0.40014681  0.89270556     1.02700
Fe45       Fe  0.40098093  0.34644066  0.55256366     1.65800
Fe46       Fe  0.40426015  0.30032484  0.47927511     1.73200
Fe47       Fe  0.36509317  0.27983810  0.58063347     1.54400
O48         O  0.38176744  0.30333805  0.64163471    -0.81900
O49         O  0.36642183  0.27124291  0.45598626    -0.80200
O50         O  0.41567690  0.34379884  0.61884959    -0.84400
O51         O  0.36469502  0.33663868  0.58494795    -0.79200
O52         O  0.39127054  0.26513995  0.58822916    -0.81000
O53         O  0.39946680  0.32880849  0.43673573    -0.83800
C54         C  0.34184794  0.31569231  0.59159095     0.97000
C55         C  0.40181509  0.32648362  0.65113056     1.04400
O56         O  0.38986819  0.30867431  0.53708726    -1.12700
O57         O  0.44352858  0.32787082  0.49943398    -0.75200
O58         O  0.43942936  0.36267775  0.52433103    -0.78700
O59         O  0.33681527  0.29219640  0.57877251    -0.79400
C60         C  0.45389164  0.35204994  0.51506930     0.95900
O61         O  0.38662337  0.35095471  0.48804373    -0.77300
O62         O  0.40965600  0.27046920  0.51473906    -0.82500
C63         C  0.34635322  0.25272939  0.47901229     0.98500
C64         C  0.40490432  0.26032329  0.55745073     1.04400
O65         O  0.34479355  0.25282646  0.52498407    -0.78200
C66         C  0.38995649  0.34465070  0.44554259     1.02700
Fe67       Fe  0.06454540  0.40889415  0.72302699     1.65800
Fe68       Fe  0.11186426  0.41094557  0.64461866     1.73200
Fe69       Fe  0.09292877  0.36992466  0.74305215     1.54400
O70         O  0.08835511  0.38674429  0.80474263    -0.81900
O71         O  0.10229318  0.37291357  0.61932322    -0.80200
O72         O  0.08263776  0.42215126  0.78985189    -0.84400
O73         O  0.03786710  0.37220643  0.75571883    -0.79200
O74         O  0.13354839  0.39476132  0.75001179    -0.81000
O75         O  0.07847099  0.40662067  0.60475032    -0.83800
C76         C  0.03565541  0.34887297  0.76021533     0.97000
C77         C  0.08698514  0.40731439  0.81886906     1.04400
O78         O  0.08984499  0.39656735  0.70317687    -1.12700
O79         O  0.12445616  0.45045457  0.66531279    -0.75200
O80         O  0.08769613  0.44814055  0.69682535    -0.78700
O81         O  0.05225752  0.34299946  0.74104342    -0.79400
C82         C  0.11231130  0.46174172  0.68442775     0.95900
O83         O  0.04489018  0.39581287  0.65827615    -0.77300
O84         O  0.14706952  0.41598231  0.67871899    -0.82500
C85         C  0.09941837  0.35179624  0.64075351     0.98500
C86         C  0.15208030  0.41007217  0.72080529     1.04400
O87         O  0.09794312  0.34953690  0.68645856    -0.78200
C88         C  0.05365608  0.39802558  0.61513875     1.02700
Fe89       Fe  0.16947031  0.11262888  0.29183674     1.65800
Fe90       Fe  0.21440904  0.10663518  0.36259902     1.73200
Fe91       Fe  0.23530554  0.14723124  0.26323667     1.54400
O92         O  0.21164809  0.13090060  0.20193061    -0.81900
O93         O  0.24326319  0.14428900  0.38807352    -0.80200
O94         O  0.17132536  0.09718054  0.22557192    -0.84400
O95         O  0.18022941  0.14947456  0.25844477    -0.79200
O96         O  0.24882915  0.12044840  0.25372156    -0.81000
O97         O  0.18594808  0.11086348  0.40591627    -0.83800
C98         C  0.20170775  0.17205793  0.25243234     0.97000
C99         C  0.18869885  0.11040507  0.19295603     1.04400
O100        O  0.20662620  0.12244555  0.30629947    -1.12700
O101        O  0.18695635  0.06794192  0.33894565    -0.75200
O102        O  0.15247543  0.07367455  0.32066618    -0.78700
O103        O  0.22428753  0.17631257  0.26755232    -0.79400
C104        C  0.16277986  0.05843282  0.32489781     0.95900
O105        O  0.16665718  0.12799039  0.35702827    -0.77300
O106        O  0.24403097  0.10133489  0.32631004    -0.82500
C107        C  0.26165926  0.16476753  0.36557095     0.98500
C108        C  0.25335052  0.10600665  0.28302349     1.04400
O109        O  0.26195425  0.16655982  0.31957026    -0.78200
C110        C  0.17206541  0.12272778  0.39893049     1.02700
Fe111      Fe  0.16430786  0.07221209  0.89265270     1.65800
Fe112      Fe  0.20989017  0.12029669  0.81650327     1.73200
Fe113      Fe  0.23104135  0.10062463  0.91600983     1.54400
O114        O  0.20908415  0.09392356  0.97954407    -0.81900
O115        O  0.23814294  0.11046179  0.79114083    -0.80200
O116        O  0.16891012  0.08883575  0.96010162    -0.84400
O117        O  0.17409465  0.04423749  0.92093675    -0.79200
O118        O  0.24576054  0.14140841  0.92458764    -0.81000
O119        O  0.18137252  0.08742430  0.77471548    -0.83800
C120        C  0.19506320  0.04199245  0.92613021     0.97000
C121        C  0.18662053  0.09197617  0.99092157     1.04400
O122        O  0.20180629  0.09763569  0.87466955    -1.12700
O123        O  0.18316035  0.13341380  0.83668966    -0.75200
O124        O  0.14901827  0.09706001  0.87029080    -0.78700
O125        O  0.21821737  0.06001209  0.91203750    -0.79400
C126        C  0.15987872  0.12157341  0.85596953     0.95900
O127        O  0.15718715  0.05350797  0.82683274    -0.77300
O128        O  0.23966446  0.15504088  0.85211980    -0.82500
C129        C  0.25689691  0.10892416  0.81299625     0.98500
C130        C  0.24987549  0.16012279  0.89465409     1.04400
O131        O  0.25747191  0.10735070  0.85890517    -0.78200
C132        C  0.16437903  0.06256088  0.78410513     1.02700
Fe133      Fe  0.06714097  0.16879172  0.45890497     1.65800
Fe134      Fe  0.11323054  0.21742672  0.53391201     1.73200
Fe135      Fe  0.08946719  0.23538417  0.43498503     1.54400
O136        O  0.08782473  0.21517232  0.37282076    -0.81900
O137        O  0.10371357  0.24634842  0.55692870    -0.80200
O138        O  0.08364540  0.17477758  0.38989377    -0.84400
O139        O  0.03685498  0.17405587  0.43003436    -0.79200
O140        O  0.13061565  0.25550074  0.42859064    -0.81000
O141        O  0.08073048  0.18948060  0.57718402    -0.83800
C142        C  0.03332406  0.19379496  0.41889317     0.97000
C143        C  0.08683871  0.19324804  0.35988404     1.04400
O144        O  0.08998496  0.20731862  0.47619621    -1.12700
O145        O  0.12741363  0.19093394  0.51796068    -0.75200
O146        O  0.09377151  0.15635844  0.48063555    -0.78700
O147        O  0.04807435  0.21739413  0.43568700    -0.79400
C148        C  0.11742667  0.16800508  0.49748626     0.95900
O149        O  0.04891946  0.16076357  0.52584084    -0.77300
O150        O  0.14694865  0.24646782  0.49533447    -0.82500
C151        C  0.09646175  0.26159743  0.53589109     0.98500
C152        C  0.15019822  0.25817111  0.45423721     1.04400
O153        O  0.09091763  0.25957467  0.49120004    -0.78200
C154        C  0.05685924  0.17024148  0.56813627     1.02700
Fe155      Fe  0.32914054  0.44201282  0.38648361     1.65800
Fe156      Fe  0.28507402  0.39114148  0.31333452     1.73200
Fe157      Fe  0.26264800  0.40968078  0.41232293     1.54400
O158        O  0.27992059  0.40302536  0.47161763    -0.81900
O159        O  0.25052146  0.39333843  0.29612809    -0.80200
O160        O  0.32287853  0.43492693  0.46074221    -0.84400
O161        O  0.31753457  0.47090222  0.39042850    -0.79200
O162        O  0.24043694  0.36847355  0.40277749    -0.81000
O163        O  0.30629916  0.42515834  0.26859396    -0.83800
C164        C  0.30262665  0.47054570  0.42475043     0.97000
C165        C  0.30318382  0.41936374  0.48795440     1.04400
O166        O  0.29240548  0.41400157  0.37082460    -1.12700
O167        O  0.31864287  0.38590249  0.32512578    -0.75200
O168        O  0.34286887  0.41485280  0.38373036    -0.78700
O169        O  0.28014550  0.44971756  0.43354907    -0.79400
C170        C  0.33760574  0.39484661  0.35635340     0.95900
O171        O  0.34029559  0.45378772  0.31532566    -0.77300
O172        O  0.26239020  0.35529371  0.35276454    -0.82500
C173        C  0.23887567  0.40580426  0.31342765     0.98500
C174        C  0.24427452  0.35018396  0.38453631     1.04400
O175        O  0.24423783  0.41665175  0.35512959    -0.78200
C176        C  0.32800822  0.44750631  0.27507795     1.02700
Fe177      Fe  0.10344012  0.17466444  0.05860843     1.65800
Fe178      Fe  0.09848107  0.22109766  0.98875546     1.73200
Fe179      Fe  0.14070912  0.24093998  0.08496873     1.54400
O180        O  0.12193137  0.21737624  0.14631141    -0.81900
O181        O  0.13560081  0.25074715  0.96257918    -0.80200
O182        O  0.08777046  0.17675907  0.12377638    -0.84400
O183        O  0.13866988  0.18376241  0.09589447    -0.79200
O184        O  0.11737316  0.25812656  0.09464445    -0.81000
O185        O  0.10361860  0.19281222  0.94484075    -0.83800
C186        C  0.16149067  0.20489705  0.10085634     0.97000
C187        C  0.10105837  0.19448965  0.15565731     1.04400
O188        O  0.11422790  0.21256764  0.04392965    -1.12700
O189        O  0.05961525  0.19318037  0.01133589    -0.75200
O190        O  0.06519192  0.15824633  0.02780946    -0.78700
O191        O  0.16710065  0.22665727  0.07945678    -0.79400
C192        C  0.04989714  0.16848500  0.02337613     0.95900
O193        O  0.11955328  0.17232476  0.99418040    -0.77300
O194        O  0.09293828  0.25027068  0.02780004    -0.82500
C195        C  0.15758810  0.26770317  0.98267180     0.98500
C196        C  0.10074563  0.26136157  0.06952397     1.04400
O197        O  0.16136480  0.26700894  0.02799404    -0.78200
C198        C  0.11507676  0.17840112  0.95215249     1.02700
Fe199      Fe  0.09527664  0.44103048  0.11818146     1.65800
Fe200      Fe  0.09409159  0.39654339  0.20246200     1.73200
Fe201      Fe  0.13375010  0.41202956  0.10329847     1.54400
O202        O  0.11649897  0.41472069  0.04068815    -0.81900
O203        O  0.13201229  0.40694123  0.22831349    -0.80200
O204        O  0.08053549  0.41928571  0.05467292    -0.84400
O205        O  0.13080775  0.46581902  0.08097857    -0.79200
O206        O  0.10894159  0.37101579  0.10039519    -0.81000
O207        O  0.09881685  0.43189378  0.23725138    -0.83800
C208        C  0.15407959  0.46819407  0.07791033     0.97000
C209        C  0.09536581  0.41455613  0.02632487     1.04400
O210        O  0.10778461  0.41645416  0.14179686    -1.12700
O211        O  0.05475216  0.38276278  0.18052200    -0.75200
O212        O  0.05697329  0.41967323  0.14874533    -0.78700
O213        O  0.16035052  0.45300946  0.10156098    -0.79400
C214        C  0.04352882  0.39486234  0.16091153     0.95900
O215        O  0.11054948  0.46387588  0.17945560    -0.77300
O216        O  0.08945308  0.36013928  0.17355455    -0.82500
C217        C  0.15238909  0.40826760  0.20697628     0.98500
C218        C  0.09473842  0.35363124  0.13224166     1.04400
O219        O  0.15423858  0.40853768  0.16119724    -0.78200
C220        C  0.10897216  0.45672006  0.22359726     1.02700
Fe221      Fe  0.40003784  0.07365606  0.62506105     1.65800
Fe222      Fe  0.40439988  0.12450006  0.69839702     1.73200
Fe223      Fe  0.36460370  0.10551019  0.59810531     1.54400
O224        O  0.38909568  0.11179631  0.53925806    -0.81900
O225        O  0.36691212  0.12084617  0.71576935    -0.80200
O226        O  0.40430172  0.08266862  0.55196587    -0.84400
O227        O  0.36091839  0.04343878  0.61415002    -0.79200
O228        O  0.38303074  0.14674345  0.60563328    -0.81000
O229        O  0.39395258  0.09099160  0.74380224    -0.83800
C230        C  0.34418849  0.04419092  0.58494626     0.97000
C231        C  0.40052414  0.09864703  0.52500744     1.04400
O232        O  0.38973087  0.10118072  0.64069128    -1.12700
O233        O  0.44383291  0.13161079  0.68667808    -0.75200
O234        O  0.44036949  0.10070277  0.63301187    -0.78700
O235        O  0.34237018  0.06531836  0.57847372    -0.79400
C236        C  0.45444543  0.12174669  0.65820574     0.95900
O237        O  0.39642784  0.06077419  0.69543850    -0.77300
O238        O  0.41602731  0.16032939  0.65945057    -0.82500
C239        C  0.34328022  0.10958623  0.69733693     0.98500
C240        C  0.40383149  0.16528607  0.62587310     1.04400
O241        O  0.33863685  0.09963498  0.65482092    -0.78200
C242        C  0.39266287  0.06815672  0.73669713     1.02700
Fe243      Fe  0.43268557  0.34246838  0.95048191     1.65800
Fe244      Fe  0.38559899  0.29794310  0.02773514     1.73200
Fe245      Fe  0.40027091  0.27565357  0.92426604     1.54400
O246        O  0.40619497  0.29914380  0.86260600    -0.81900
O247        O  0.39617372  0.26952547  0.05058151    -0.80200
O248        O  0.41402036  0.34015272  0.88608249    -0.84400
O249        O  0.45753081  0.33100910  0.91501024    -0.79200
O250        O  0.36002987  0.26299951  0.92060114    -0.81000
O251        O  0.41939830  0.32743821  0.06686058    -0.83800
C252        C  0.45840224  0.30931079  0.90750648     0.97000
C253        C  0.40985864  0.32277993  0.85353688     1.04400
O254        O  0.40636094  0.30517284  0.96780613    -1.12700
O255        O  0.37269606  0.32496361  0.00683504    -0.75200
O256        O  0.41107924  0.35951510  0.98110280    -0.78700
O257        O  0.44011976  0.28623477  0.92187911    -0.79400
C258        C  0.38601429  0.34898301  0.99015911     0.95900
O259        O  0.45322060  0.34654790  0.01320269    -0.77300
O260        O  0.34977740  0.26708974  0.99686428    -0.82500
C261        C  0.39578834  0.24994329  0.02722662     0.98500
C262        C  0.34288776  0.25742994  0.95416860     1.04400
O263        O  0.39449009  0.24869483  0.98102824    -0.78200
C264        C  0.44453702  0.34134584  0.05643102     1.02700
C265        C  0.01455488  0.37889650  0.14681638    -0.00400
C266        C  0.00506026  0.35239088  0.12935006    -0.12200
C267        C  0.48093708  0.33893879  0.10295731     0.01900
C268        C  0.46524315  0.35153859  0.09500737    -0.00500
C269        C  0.47337038  0.37697036  0.11612987    -0.12200
C270        C  0.99785225  0.39071123  0.14181777     0.01800
H271        H  0.01761838  0.34303261  0.13245472     0.14700
H272        H  0.46154762  0.38689937  0.10984185     0.14700
C273        C  0.00568598  0.41717003  0.16159875     0.36400
C274        C  0.47404203  0.31325768  0.08060754     0.36300
N275        N  0.01197503  0.43833594  0.17769711    -0.44000
N276        N  0.46875618  0.29282990  0.06238467    -0.44000
C277        C  0.09187739  0.28018757  0.08995030    -0.00400
C278        C  0.08085913  0.29190313  0.05904344    -0.12200
C279        C  0.07836712  0.31422442  0.07429458     0.01900
C280        C  0.08680364  0.32511183  0.12121506    -0.00500
C281        C  0.09440892  0.31138321  0.15401411    -0.12200
C282        C  0.09728518  0.28936504  0.13907084     0.01800
H283        H  0.07583880  0.28486792  0.02197179     0.14700
H284        H  0.10075128  0.31954727  0.19021359     0.14700
C285        C  0.10788739  0.27840307  0.17476083     0.36400
C286        C  0.06785551  0.32623936  0.04077944     0.36300
N287        N  0.11667812  0.27017092  0.20377411    -0.44000
N288        N  0.05921698  0.33577275  0.01412292    -0.44000
C289        C  0.21749755  0.40717941  0.28514592    -0.00400
C290        C  0.19769540  0.41015451  0.31057051    -0.12200
C291        C  0.17659613  0.41102516  0.28644275     0.01900
C292        C  0.17489471  0.40888910  0.23531986    -0.00500
C293        C  0.19511103  0.40647877  0.20989655    -0.12200
C294        C  0.21615874  0.40556585  0.23406224     0.01800
H295        H  0.19842157  0.41144169  0.34984237     0.14700
H296        H  0.19449051  0.40503181  0.17065876     0.14700
C297        C  0.23635907  0.40374569  0.20509574     0.36400
C298        C  0.15724975  0.41420129  0.31552875     0.36300
N299        N  0.25251015  0.40242748  0.18157754    -0.44000
N300        N  0.14183074  0.41676006  0.33907853    -0.44000
C301        C  0.31367219  0.49167272  0.46258593    -0.00400
C302        C  0.29594405  0.99731590  0.48947074    -0.12200
C303        C  0.30461875  0.01300265  0.53184944     0.01900
C304        C  0.33100530  0.02229682  0.54905172    -0.00500
C305        C  0.34817452  0.01573977  0.52321636    -0.12200
C306        C  0.34013925  0.50117401  0.48000024     0.01800
H307        H  0.27523795  0.98913081  0.47766953     0.14700
H308        H  0.36879006  0.52317374  0.53556341     0.14700
C309        C  0.35940816  0.49582530  0.45529469     0.36400
C310        C  0.28581781  0.01838130  0.55786434     0.36300
N311        N  0.37487895  0.49158297  0.43557667    -0.44000
N312        N  0.27035244  0.02222861  0.57851843    -0.44000
C313        C  0.17779477  0.27690104  0.43557530    -0.00400
C314        C  0.19783513  0.29382167  0.46829397    -0.12200
C315        C  0.22159763  0.31640070  0.45166635     0.01900
C316        C  0.22576793  0.32217343  0.40141002    -0.00500
C317        C  0.20741510  0.30334904  0.36851061    -0.12200
C318        C  0.18350127  0.28082510  0.38510469     0.01800
H319        H  0.19406491  0.29073095  0.50700545     0.14700
H320        H  0.21055680  0.30748969  0.32989802     0.14700
C321        C  0.16461904  0.26284132  0.34943505     0.36400
C322        C  0.24068926  0.33428392  0.48715013     0.36300
N323        N  0.14948877  0.24853390  0.32077775    -0.44000
N324        N  0.25584153  0.34832877  0.51602931    -0.44000
C325        C  0.09242348  0.18883959  0.20605348     0.08000
C326        C  0.10121408  0.17442108  0.23528815    -0.12200
C327        C  0.09813534  0.17388068  0.28583705     0.01900
C328        C  0.08771276  0.18942265  0.30711915    -0.00500
C329        C  0.07763452  0.20245936  0.27691810    -0.12200
C330        C  0.07894646  0.20128439  0.22677859     0.01800
H331        H  0.11119837  0.16436102  0.21876920     0.14700
H332        H  0.06838589  0.21347283  0.29245409     0.14700
C333        C  0.06575307  0.21225895  0.19700950     0.36400
C334        C  0.10666773  0.15823634  0.31479205     0.36300
N335        N  0.05473818  0.22041634  0.17285342    -0.44000
N336        N  0.11332604  0.14559268  0.33815815    -0.44000
C337        C  0.03613310  0.15906100  0.60702192    -0.00400
C338        C  0.02622932  0.17556084  0.62547964    -0.12200
C339        C  0.00054468  0.16407250  0.64730436     0.01900
C340        C  0.48432176  0.13551528  0.65086851    -0.00500
C341        C  0.49583712  0.11940549  0.63777883    -0.12200
C342        C  0.02136852  0.13087229  0.61583988     0.01800
H343        H  0.03737604  0.19726035  0.61855324     0.14700
H344        H  0.48403962  0.09748678  0.64147464     0.14700
C345        C  0.03152475  0.11325492  0.60029764     0.36400
C346        C  0.99043496  0.18201466  0.66081539     0.36300
N347        N  0.53988452  0.09926454  0.58840592    -0.44000
N348        N  0.98249482  0.19654904  0.67158795    -0.44000
C349        C  0.26871274  0.18862854  0.91036367    -0.00400
C350        C  0.27455490  0.19367934  0.96024499    -0.12200
C351        C  0.29700834  0.21764335  0.97648026     0.01900
C352        C  0.31439477  0.23713557  0.94241730    -0.00500
C353        C  0.30638030  0.23379800  0.89342953    -0.12200
C354        C  0.28377192  0.20996494  0.87721048     0.01800
H355        H  0.26249539  0.17810917  0.98667812     0.14700
H356        H  0.31893942  0.24910529  0.86697358     0.14700
C357        C  0.27793563  0.20740294  0.82594485     0.36400
C358        C  0.30282551  0.22046797  0.02776811     0.36300
N359        N  0.27324276  0.20546754  0.78485479    -0.44000
N360        N  0.30742384  0.22278803  0.06890039    -0.44000
C361        C  0.27903227  0.10907013  0.78392886    -0.00400
C362        C  0.27322290  0.09649372  0.73836398    -0.12200
C363        C  0.29345896  0.09621235  0.70966079     0.01900
C364        C  0.32051328  0.10860000  0.72653921    -0.00500
C365        C  0.32620344  0.12143807  0.77214144    -0.12200
C366        C  0.30597571  0.12197265  0.80039938     0.01800
H367        H  0.25266849  0.08674321  0.72504159     0.14700
H368        H  0.34670685  0.13167097  0.78565522     0.14700
C369        C  0.31374613  0.13731878  0.84490744     0.36400
C370        C  0.28554620  0.08347972  0.66273839     0.36300
N371        N  0.31977549  0.14974021  0.88044757    -0.44000
N372        N  0.27902644  0.07349256  0.62497089    -0.44000
C373        C  0.12379020  0.16741883  0.91148147    -0.00400
C374        C  0.10722698  0.14005970  0.89895706    -0.12200
C375        C  0.11792882  0.12518126  0.87636238     0.01900
C376        C  0.14594882  0.13762083  0.86635335    -0.00500
C377        C  0.16184399  0.16580704  0.87420175    -0.12200
C378        C  0.15107648  0.18060494  0.89682573     0.01800
H379        H  0.08625461  0.12968227  0.91034099     0.14700
H380        H  0.18330262  0.17595520  0.86648833     0.14700
C381        C  0.16901827  0.20875063  0.90870749     0.36400
C382        C  0.09977793  0.09691887  0.86585764     0.36300
N383        N  0.18350862  0.23129100  0.91815686    -0.44000
N384        N  0.08502206  0.07428533  0.85754336    -0.44000
C385        C  0.19256090  0.02013302  0.95800740    -0.00400
C386        C  0.20500183  0.02788525  0.00381500    -0.12200
C387        C  0.19435857  0.01040694  0.04392011     0.01900
C388        C  0.17118341  0.48468343  0.03754402    -0.00500
C389        C  0.16115822  0.47583875  0.99060181    -0.12200
C390        C  0.17173064  0.99337409  0.95093812     0.01800
H391        H  0.22096376  0.04863009  0.00952958     0.14700
H392        H  0.14386805  0.45590848  0.98532739     0.14700
C393        C  0.15905048  0.98422089  0.90419723     0.36400
C394        C  0.20560885  0.01986821  0.09143748     0.36300
N395        N  0.14842767  0.47690910  0.86682176    -0.44000
N396        N  0.21466975  0.02731484  0.12957579    -0.44000
C397        C  0.14697585  0.02936674  0.30928638    -0.00400
C398        C  0.16134206  0.01615143  0.29544760    -0.12200
C399        C  0.14880807  0.49158836  0.26986941     0.01900
C400        C  0.12099279  0.47887397  0.25959791    -0.00500
C401        C  0.10611570  0.49090655  0.27608330    -0.12200
C402        C  0.11876944  0.01596502  0.30041080     0.01800
H403        H  0.18297649  0.02610856  0.30087304     0.14700
H404        H  0.08483690  0.48148399  0.26737780     0.14700
C405        C  0.10234271  0.02781462  0.31372168     0.36400
C406        C  0.16555735  0.48138811  0.25007684     0.36300
N407        N  0.08905317  0.03725011  0.32393539    -0.44000
N408        N  0.17923843  0.47368143  0.23369509    -0.44000
C409        C  0.18161499  0.09428989  0.04212796    -0.00400
C410        C  0.17856467  0.07380041  0.07450618    -0.12200
C411        C  0.17820847  0.07759601  0.12457136     0.01900
C412        C  0.18229405  0.10268626  0.14209119    -0.00500
C413        C  0.18360930  0.12238990  0.10952115    -0.12200
C414        C  0.18272792  0.11806965  0.05960932     0.01800
H415        H  0.17720072  0.05523602  0.06068111     0.14700
H416        H  0.18612239  0.14145231  0.12311905     0.14700
C417        C  0.18432383  0.13862248  0.02651916     0.36400
C418        C  0.17512612  0.05625418  0.15716862     0.36300
N419        N  0.18526467  0.15441468  0.99873586    -0.44000
N420        N  0.17243902  0.03911270  0.18340428    -0.44000
C421        C  0.20044076  0.19154712  0.21923910    -0.00400
C422        C  0.21136920  0.19388407  0.17246474    -0.12200
C423        C  0.20083277  0.20112721  0.13289420     0.01900
C424        C  0.17886120  0.20534073  0.14040603    -0.00500
C425        C  0.17099601  0.20709209  0.18806598    -0.12200
C426        C  0.18190965  0.20049851  0.22754971     0.01800
H427        H  0.22623801  0.18758381  0.16611312     0.14700
H428        H  0.15539548  0.21223672  0.19454209     0.14700
C429        C  0.17339386  0.20204332  0.27622494     0.36400
C430        C  0.21216352  0.20340808  0.08516130     0.36300
N431        N  0.16734024  0.20367181  0.31564849    -0.44000
N432        N  0.22167753  0.20603692  0.04702169    -0.44000
C433        C  0.16122728  0.13103937  0.44012086    -0.00400
C434        C  0.17543675  0.15827243  0.45483644    -0.12200
C435        C  0.16230339  0.17028653  0.47910064     0.01900
C436        C  0.13418693  0.15488104  0.48837249    -0.00500
C437        C  0.12089340  0.12681227  0.47853169    -0.12200
C438        C  0.13413129  0.11490259  0.45452580     0.01800
H439        H  0.19628467  0.17082082  0.44355283     0.14700
H440        H  0.09950495  0.11448881  0.48622862     0.14700
C441        C  0.11889937  0.08657469  0.44142064     0.36400
C442        C  0.17768252  0.19902875  0.48917504     0.36300
N443        N  0.10666218  0.06382810  0.43118790    -0.44000
N444        N  0.19011427  0.22205687  0.49723453    -0.44000
C445        C  0.09556710  0.28361644  0.56338740    -0.00400
C446        C  0.09898975  0.30659260  0.53762081    -0.12200
C447        C  0.10014711  0.32892394  0.56140087     0.01900
C448        C  0.09770502  0.32859906  0.61252020    -0.00500
C449        C  0.09361249  0.30524456  0.63809533    -0.12200
C450        C  0.09250841  0.28296236  0.61425920     0.01800
H451        H  0.10141835  0.30746739  0.49850032     0.14700
H452        H  0.09128687  0.30422860  0.67722582     0.14700
C453        C  0.08766036  0.25963103  0.64311824     0.36400
C454        C  0.10400862  0.35171948  0.53196112     0.36300
N455        N  0.08376830  0.24104289  0.66654273    -0.44000
N456        N  0.10693330  0.36987681  0.50824080    -0.44000
C457        C  0.47984276  0.31139955  0.87526405    -0.00400
C458        C  0.47241488  0.30002918  0.82850824    -0.12200
C459        C  0.99077973  0.31056340  0.78925580     0.01900
C460        C  0.01727989  0.33125685  0.79830688    -0.00500
C461        C  0.02541415  0.33969036  0.84620125    -0.12200
C462        C  0.50680086  0.33070018  0.88455404     0.01800
H463        H  0.45153835  0.28547814  0.82103921     0.14700
H464        H  0.04587235  0.35546710  0.85346399     0.14700
C465        C  0.51509642  0.34347776  0.93148324     0.36400
C466        C  0.98185738  0.30108520  0.74058413     0.36300
N467        N  0.52142511  0.35389397  0.96895691    -0.44000
N468        N  0.97477986  0.29343306  0.70154485    -0.44000
C469        C  0.12745491  0.49136716  0.69648844    -0.00400
C470        C  0.11265995  0.50412384  0.71041956    -0.12200
C471        C  0.12487572  0.02897267  0.73521053     0.01900
C472        C  0.15274925  0.04229123  0.74479004    -0.00500
C473        C  0.16816920  0.03124657  0.72635001    -0.12200
C474        C  0.15587903  0.00600569  0.70262111     0.01800
H475        H  0.09098127  0.49372332  0.70534421     0.14700
H476        H  0.18956278  0.04115185  0.73441792     0.14700
C477        C  0.17266888  0.49419641  0.69067787     0.36400
C478        C  0.10810536  0.03947393  0.75340006     0.36300
N479        N  0.18608392  0.48480603  0.68108285    -0.44000
N480        N  0.09451105  0.04774144  0.76788208    -0.44000
C481        C  0.08994478  0.41213732  0.87161173    -0.00400
C482        C  0.10248646  0.39981048  0.89645956    -0.12200
C483        C  0.10208359  0.39820047  0.94633359     0.01900
C484        C  0.09028161  0.41075645  0.97381604    -0.00500
C485        C  0.07819660  0.42382444  0.94943013    -0.12200
C486        C  0.07784932  0.42454855  0.89845462     0.01800
H487        H  0.11230509  0.39050979  0.87660755     0.14700
H488        H  0.06974619  0.43417727  0.97014285     0.14700
C489        C  0.06512595  0.43804680  0.87494425     0.36400
C490        C  0.11446304  0.38363535  0.96761929     0.36300
N491        N  0.05506462  0.44905117  0.85616534    -0.44000
N492        N  0.12467156  0.37217833  0.98409394    -0.44000
C493        C  0.41353472  0.24044301  0.57218383    -0.00400
C494        C  0.41798444  0.23798161  0.62183722    -0.12200
C495        C  0.41821493  0.21487236  0.63992753     0.01900
C496        C  0.41306045  0.19334292  0.60832837    -0.00500
C497        C  0.41164619  0.19715260  0.55818015    -0.12200
C498        C  0.41239799  0.22060205  0.53980793     0.01800
H499        H  0.41969712  0.25342710  0.64706469     0.14700
H500        H  0.40820582  0.18090786  0.53339203     0.14700
C501        C  0.40963471  0.22245851  0.48808138     0.36400
C502        C  0.42154478  0.21281584  0.69135807     0.36300
N503        N  0.40764379  0.22391759  0.44655466    -0.44000
N504        N  0.42445563  0.21124230  0.73253763    -0.44000
C505        C  0.32413323  0.23008605  0.45102469    -0.00400
C506        C  0.32551973  0.23089828  0.40007002    -0.12200
C507        C  0.30590935  0.21001437  0.37166084     0.01900
C508        C  0.28353715  0.18749298  0.39396715    -0.00500
C509        C  0.28205985  0.18670004  0.44494489    -0.12200
C510        C  0.30198625  0.20736123  0.47341714     0.01800
H511        H  0.34230256  0.24786700  0.38191654     0.14700
H512        H  0.26528513  0.16967745  0.46301112     0.14700
C513        C  0.29914399  0.20402486  0.52545910     0.36400
C514        C  0.31003918  0.21227601  0.31974749     0.36300
N515        N  0.29682977  0.20115896  0.56711940    -0.44000
N516        N  0.31350471  0.21407599  0.27819847    -0.44000
C517        C  0.03335768  0.38984713  0.57628388    -0.00400
C518        C  0.02058377  0.40527884  0.56969023    -0.12200
C519        C  0.49586949  0.39453988  0.54554289     0.01900
C520        C  0.48328475  0.36755705  0.52726398    -0.00500
C521        C  0.49779085  0.35341508  0.52930056    -0.12200
C522        C  0.02231315  0.36410835  0.55425477     0.01800
H523        H  0.02904070  0.42510293  0.58660741     0.14700
H524        H  0.48885113  0.33289795  0.51528335     0.14700
C525        C  0.03420388  0.34700979  0.56091815     0.36400
C526        C  0.48348631  0.41142773  0.54291782     0.36300
N527        N  0.04322499  0.33283866  0.56615963    -0.44000
N528        N  0.47380089  0.42518578  0.54136722    -0.44000
C529        C  0.40787878  0.33318821  0.70221557    -0.00400
C530        C  0.38765796  0.33307839  0.73153535    -0.12200
C531        C  0.38938966  0.33259310  0.78195306     0.01900
C532        C  0.41063543  0.33038651  0.80277876    -0.00500
C533        C  0.43209317  0.33307855  0.77371417    -0.12200
C534        C  0.43124054  0.33542245  0.72338512     0.01800
H535        H  0.37012434  0.33244078  0.71494627     0.14700
H536        H  0.44913635  0.33270558  0.79028498     0.14700
C537        C  0.45390307  0.33929878  0.69405589     0.36400
C538        C  0.36903336  0.33360568  0.81167190     0.36300
N539        N  0.47215926  0.34306578  0.67016997    -0.44000
N540        N  0.35325835  0.33503330  0.83611023    -0.44000
C541        C  0.38186488  0.35672235  0.40607826    -0.00400
C542        C  0.35673275  0.34067078  0.38400023    -0.12200
C543        C  0.34265960  0.35266330  0.36300348     0.01900
C544        C  0.35401239  0.38126742  0.36370408    -0.00500
C545        C  0.38055557  0.39719475  0.38067169    -0.12200
C546        C  0.39436897  0.38521725  0.40200410     0.01800
H547        H  0.34683058  0.31874338  0.38774036     0.14700
H548        H  0.38979806  0.41916633  0.38070664     0.14700
C549        C  0.42037395  0.40261348  0.42364498     0.36400
C550        C  0.31548138  0.33501790  0.34647048     0.36300
N551        N  0.44117207  0.41656604  0.44104821    -0.44000
N552        N  0.29367070  0.32077008  0.33339438    -0.44000
C553        C  0.18026687  0.41984001  0.73737250    -0.00400
C554        C  0.18538146  0.42230145  0.78770666    -0.12200
C555        C  0.20868062  0.42343255  0.80694144     0.01900
C556        C  0.22762442  0.42233068  0.77543857    -0.00500
C557        C  0.22418422  0.42353931  0.72499395    -0.12200
C558        C  0.20081025  0.42218125  0.70574983     0.01800
H559        H  0.17007843  0.42129921  0.81258010     0.14700
H560        H  0.23888793  0.42328643  0.70024168     0.14700
C561        C  0.19737819  0.42030649  0.65375519     0.36400
C562        C  0.21108335  0.42279098  0.85896419     0.36300
N563        N  0.19472584  0.41874472  0.61206135    -0.44000
N564        N  0.21281169  0.42224679  0.90072768    -0.44000
C565        C  0.17978506  0.28948365  0.95278488    -0.00400
C566        C  0.20221862  0.31045351  0.97670881    -0.12200
C567        C  0.22339978  0.33181513  0.95109936     0.01900
C568        C  0.22272375  0.33267841  0.89980054    -0.00500
C569        C  0.20051782  0.31152265  0.87581184    -0.12200
C570        C  0.17927496  0.29022746  0.90138624     0.01800
H571        H  0.20324666  0.31042396  0.01597915     0.14700
H572        H  0.19943456  0.31170598  0.83654848     0.14700
C573        C  0.15748501  0.26951363  0.87328349     0.36400
C574        C  0.24554610  0.35228980  0.97889415     0.36300
N575        N  0.14013220  0.25299311  0.85047207    -0.44000
N576        N  0.26319721  0.36866018  0.00138889    -0.44000
C577        C  0.32268757  0.31910997  0.62232283    -0.00400
C578        C  0.31543597  0.30514782  0.66702879    -0.12200
C579        C  0.30806634  0.31559467  0.70677625     0.01900
C580        C  0.30741819  0.33994474  0.70120950    -0.00500
C581        C  0.31153026  0.35191783  0.65503361    -0.12200
C582        C  0.31926182  0.34184528  0.61577266     0.01800
H583        H  0.31848588  0.28787855  0.67252764     0.14700
H584        H  0.31041629  0.37032114  0.65029071     0.14700
C585        C  0.32589470  0.35651693  0.57025740     0.36400
C586        C  0.30374150  0.30246200  0.75340683     0.36300
N587        N  0.33134963  0.36823649  0.53378796    -0.44000
N588        N  0.30028157  0.29172098  0.79062298    -0.44000
C589        C  0.37212154  0.36491590  0.97746397    -0.00400
C590        C  0.38763000  0.39078263  0.95601511    -0.12200
C591        C  0.37546753  0.40388228  0.93237407     0.01900
C592        C  0.34715232  0.39158994  0.93040739    -0.00500
C593        C  0.33152514  0.36722493  0.95587650    -0.12200
C594        C  0.34363943  0.35379550  0.97922144     0.01800
H595        H  0.40942011  0.40017829  0.95473502     0.14700
H596        H  0.30970941  0.35755159  0.95426517     0.14700
C597        C  0.32603599  0.32787226  0.00173230     0.36400
C598        C  0.39244084  0.42925756  0.90750942     0.36300
N599        N  0.31181003  0.30708009  0.01965864    -0.44000
N600        N  0.40586955  0.44954504  0.88738301    -0.44000
C601        C  0.35767430  0.49628893  0.82253427    -0.00400
C602        C  0.38377553  0.00624290  0.80277701    -0.12200
C603        C  0.39718643  0.03155097  0.77962463     0.01900
C604        C  0.38481612  0.04776065  0.77620940    -0.00500
C605        C  0.36080535  0.03979163  0.80211110    -0.12200
C606        C  0.34713330  0.51432115  0.82516043     0.01800
H607        H  0.39307187  0.49363572  0.80253078     0.14700
H608        H  0.35135882  0.05234978  0.80046328     0.14700
C609        C  0.32166299  0.50669981  0.84840769     0.36400
C610        C  0.42275809  0.03955536  0.75618245     0.36300
N611        N  0.30131561  0.50076706  0.86721519    -0.44000
N612        N  0.44315118  0.04602075  0.73707653    -0.44000
C613        C  0.31250813  0.42443699  0.64210809    -0.00400
C614        C  0.28974505  0.42333325  0.62085216    -0.12200
C615        C  0.28674546  0.42227084  0.57074606     0.01900
C616        C  0.30679479  0.42207198  0.54082916    -0.00500
C617        C  0.33085936  0.42598485  0.56178751    -0.12200
C618        C  0.33382775  0.42703461  0.61233629     0.01800
H619        H  0.27355663  0.42184929  0.64370686     0.14700
H620        H  0.34679612  0.42697272  0.53881690     0.14700
C621        C  0.35785540  0.42858506  0.63260665     0.36400
C622        C  0.26293029  0.42161377  0.55123567     0.36300
N623        N  0.37716928  0.42985568  0.64867523    -0.44000
N624        N  0.24387293  0.42118767  0.53581960    -0.44000
C625        C  0.27214216  0.09656410  0.26612673    -0.00400
C626        C  0.28922216  0.09418438  0.29985214    -0.12200
C627        C  0.31243875  0.09373453  0.28445352     0.01900
C628        C  0.31904154  0.09598423  0.23437948    -0.00500
C629        C  0.30004211  0.09442039  0.20061733    -0.12200
C630        C  0.27667005  0.09457470  0.21595832     0.01800
H631        H  0.28563975  0.09477512  0.33837565     0.14700
H632        H  0.30444939  0.09532625  0.16213845     0.14700
C633        C  0.25847022  0.09412734  0.17913344     0.36400
C634        C  0.32970278  0.09206464  0.32098743     0.36300
N635        N  0.24399599  0.09387851  0.14953921    -0.44000
N636        N  0.34337775  0.09060763  0.35041124    -0.44000
C637        C  0.40072993  0.18665204  0.10916843    -0.00400
C638        C  0.38682578  0.18060833  0.06480319    -0.12200
C639        C  0.38483906  0.20067176  0.03789902     0.01900
C640        C  0.39707853  0.22778495  0.05481808    -0.00500
C641        C  0.41097877  0.23388238  0.09911508    -0.12200
C642        C  0.41309712  0.21389005  0.12598628     0.01800
H643        H  0.37676260  0.15988843  0.05154443     0.14700
H644        H  0.42059018  0.25453343  0.11267073     0.14700
C645        C  0.42869252  0.22230350  0.17012386     0.36400
C646        C  0.36889745  0.19247208  0.99424093     0.36300
N647        N  0.44123083  0.22912165  0.20543504    -0.44000
N648        N  0.35607392  0.18604355  0.95928173    -0.44000
C649        C  0.46837614  0.12303030  0.08087195    -0.00400
C650        C  0.47505787  0.14511885  0.04952228    -0.12200
C651        C  0.50073569  0.15920809  0.02709132     0.01900
C652        C  0.02045780  0.15136026  0.03614504    -0.00500
C653        C  0.01254162  0.12759502  0.06347512    -0.12200
C654        C  0.48709938  0.11363559  0.08567815     0.01800
H655        H  0.46093337  0.15254005  0.04505254     0.14700
H656        H  0.02685081  0.12061604  0.07019894     0.14700
C657        C  0.48137529  0.09032937  0.11526481     0.36400
C658        C  0.50631732  0.18183596  0.99571901     0.36300
N659        N  0.97730338  0.07174216  0.13884020    -0.44000
N660        N  0.51063564  0.19982235  0.97023933    -0.44000
C661        C  0.48692875  0.17918269  0.28887421    -0.00400
C662        C  0.98425073  0.19492894  0.32559403    -0.12200
C663        C  0.99948493  0.20089974  0.36861103     0.01900
C664        C  0.01651922  0.18977899  0.37564901    -0.00500
C665        C  0.52009627  0.17552043  0.33749765    -0.12200
C666        C  0.50692368  0.17163111  0.29366507     0.01800
H667        H  0.96878032  0.20067205  0.32261914     0.14700
H668        H  0.53347622  0.16722862  0.34163750     0.14700
C669        C  0.51249085  0.15739140  0.25571379     0.36400
C670        C  0.99575159  0.21642380  0.40618833     0.36300
N671        N  0.51684007  0.14587790  0.22552345    -0.44000
N672        N  0.99282824  0.22892769  0.43636352    -0.44000
C673        C  0.36758730  0.01992401  0.18871829    -0.00400
C674        C  0.33963093  0.00759658  0.19708258    -0.12200
C675        C  0.32543617  0.48214359  0.22082608     0.01900
C676        C  0.33921320  0.46846629  0.23615868    -0.00500
C677        C  0.36648753  0.97948214  0.22321978    -0.12200
C678        C  0.38055686  0.00464884  0.19936689     0.01800
H679        H  0.32928026  0.01890925  0.18953456     0.14700
H680        H  0.37724508  0.96909944  0.23459969     0.14700
C681        C  0.40874666  0.01488549  0.18888843     0.36400
C682        C  0.29776070  0.47246221  0.23482629     0.36300
N683        N  0.43131713  0.02268410  0.18086893    -0.44000
N684        N  0.27567317  0.46493323  0.24646082    -0.44000
C685        C  0.40796879  0.10070326  0.47383048    -0.00400
C686        C  0.39649916  0.07688812  0.44594885    -0.12200
C687        C  0.39759862  0.07824602  0.39528932     0.01900
C688        C  0.41060096  0.10388561  0.37244033    -0.00500
C689        C  0.42418783  0.12751742  0.40074134    -0.12200
C690        C  0.42291535  0.12609987  0.45113510     0.01800
H691        H  0.38517667  0.05733544  0.46363276     0.14700
H692        H  0.43532443  0.14727674  0.38339111     0.14700
C693        C  0.43698511  0.15085870  0.47885865     0.36400
C694        C  0.38355612  0.05336065  0.36792749     0.36300
N695        N  0.44845608  0.17062543  0.50116203    -0.44000
N696        N  0.37228339  0.03346144  0.34589436    -0.44000
Fe697      Fe  0.43037465  0.60163939  0.22415298     1.65800
Fe698      Fe  0.38706805  0.60349614  0.14164716     1.73200
Fe699      Fe  0.40651121  0.64503428  0.24132694     1.54400
O700        O  0.40924205  0.62819564  0.30555924    -0.81900
O701        O  0.39560931  0.64193338  0.11734696    -0.80200
O702        O  0.41178885  0.59093835  0.29079116    -0.84400
O703        O  0.45825083  0.63781447  0.25253795    -0.79200
O704        O  0.36554212  0.62179526  0.24530996    -0.81000
O705        O  0.42210923  0.60971783  0.10295803    -0.83800
C706        C  0.46354886  0.66216150  0.25762812     0.97000
C707        C  0.41002384  0.60731388  0.31983558     1.04400
O708        O  0.40797966  0.61684347  0.20181193    -1.12700
O709        O  0.37358361  0.56239691  0.15757428    -0.75200
O710        O  0.40569488  0.56248495  0.20229142    -0.78700
O711        O  0.44771760  0.67033241  0.24303056    -0.79400
C712        C  0.38335304  0.54988066  0.18088203     0.95900
O713        O  0.45106807  0.61190500  0.15996551    -0.77300
O714        O  0.35165665  0.59750119  0.17680016    -0.82500
C715        C  0.40036045  0.66386202  0.13828393     0.98500
C716        C  0.34698446  0.60501872  0.21782072     1.04400
O717        O  0.40401010  0.66687518  0.18362045    -0.78200
C718        C  0.44547367  0.61392984  0.11615093     1.02700
Fe719      Fe  0.33455428  0.91368101  0.78668944     1.65800
Fe720      Fe  0.28966527  0.91541038  0.86565785     1.73200
Fe721      Fe  0.26801410  0.87424880  0.76679120     1.54400
O722        O  0.28829812  0.89458492  0.70462227    -0.81900
O723        O  0.26048776  0.87749477  0.89038312    -0.80200
O724        O  0.32916040  0.92938240  0.72294474    -0.84400
O725        O  0.32602238  0.87922001  0.74789278    -0.79200
O726        O  0.24926077  0.89685156  0.76481401    -0.81000
O727        O  0.31842653  0.90913659  0.90427310    -0.83800
C728        C  0.30590182  0.85582971  0.74178229     0.97000
C729        C  0.31005440  0.91611900  0.69318836     1.04400
O730        O  0.29713300  0.90100524  0.80674171    -1.12700
O731        O  0.31698488  0.95541616  0.84649711    -0.75200
O732        O  0.35105403  0.95146431  0.81870704    -0.78700
O733        O  0.28375004  0.84851037  0.76305685    -0.79400
C734        C  0.34100292  0.96609713  0.83090518     0.95900
O735        O  0.34039277  0.89786607  0.84908733    -0.77300
O736        O  0.26003523  0.92186722  0.83205369    -0.82500
C737        C  0.24407077  0.85521942  0.87016692     0.98500
C738        C  0.24713677  0.91362947  0.79213405     1.04400
O739        O  0.24462125  0.85163640  0.82478668    -0.78200
C740        C  0.33437675  0.90005124  0.89271789     1.02700
Fe741      Fe  0.40103036  0.84641054  0.55273196     1.65800
Fe742      Fe  0.40433674  0.80035403  0.47923038     1.73200
Fe743      Fe  0.36504896  0.77976689  0.58048291     1.54400
O744        O  0.38162288  0.80316050  0.64162811    -0.81900
O745        O  0.36653997  0.77123413  0.45581695    -0.80200
O746        O  0.41557379  0.84364297  0.61910623    -0.84400
O747        O  0.36468165  0.83658322  0.58486300    -0.79200
O748        O  0.39119629  0.76503008  0.58807259    -0.81000
O749        O  0.39949493  0.82881934  0.43673525    -0.83800
C750        C  0.34181749  0.81564531  0.59141705     0.97000
C751        C  0.40164322  0.82629322  0.65128989     1.04400
O752        O  0.38990276  0.80865477  0.53707206    -1.12700
O753        O  0.44360170  0.82792947  0.49936615    -0.75200
O754        O  0.43954455  0.86267502  0.52483927    -0.78700
O755        O  0.33678560  0.79214849  0.57860174    -0.79400
C756        C  0.45398379  0.85206807  0.51521516     0.95900
O757        O  0.38683809  0.85108501  0.48813502    -0.77300
O758        O  0.40976363  0.77051587  0.51469970    -0.82500
C759        C  0.34644162  0.75272640  0.47878083     0.98500
C760        C  0.40491749  0.76029202  0.55735772     1.04400
O761        O  0.34480958  0.75283662  0.52473364    -0.78200
C762        C  0.39008063  0.84473627  0.44560894     1.02700
Fe763      Fe  0.06464148  0.90899911  0.72294332     1.65800
Fe764      Fe  0.11197408  0.91103694  0.64468583     1.73200
Fe765      Fe  0.09296363  0.87000954  0.74309013     1.54400
O766        O  0.08839307  0.88689527  0.80472416    -0.81900
O767        O  0.10239346  0.87300341  0.61937884    -0.80200
O768        O  0.08286930  0.92241212  0.78960132    -0.84400
O769        O  0.03801377  0.87238540  0.75592777    -0.79200
O770        O  0.13358508  0.89480813  0.75011058    -0.81000
O771        O  0.07858396  0.90673100  0.60481473    -0.83800
C772        C  0.03573983  0.84902195  0.76031116     0.97000
C773        C  0.08719041  0.90758568  0.81869302     1.04400
O774        O  0.08992983  0.89665644  0.70317736    -1.12700
O775        O  0.12457445  0.95053868  0.66545297    -0.75200
O776        O  0.08769330  0.94818619  0.69638468    -0.78700
O777        O  0.05229002  0.84311967  0.74101477    -0.79400
C778        C  0.11235384  0.96181559  0.68429863     0.95900
O779        O  0.04493912  0.89573775  0.65830020    -0.77300
O780        O  0.14715108  0.91603656  0.67883304    -0.82500
C781        C  0.09948367  0.85187064  0.64080724     0.98500
C782        C  0.15213543  0.91010773  0.72092498     1.04400
O783        O  0.09797624  0.84959794  0.68651492    -0.78200
C784        C  0.05374110  0.89801302  0.61517616     1.02700
Fe785      Fe  0.16949362  0.61265872  0.29179468     1.65800
Fe786      Fe  0.21445025  0.60665681  0.36250740     1.73200
Fe787      Fe  0.23532608  0.64720546  0.26308445     1.54400
O788        O  0.21163597  0.63086445  0.20183337    -0.81900
O789        O  0.24334594  0.64431835  0.38787845    -0.80200
O790        O  0.17129379  0.59719375  0.22551298    -0.84400
O791        O  0.18026230  0.64950799  0.25841768    -0.79200
O792        O  0.24882817  0.62039827  0.25358656    -0.81000
O793        O  0.18605278  0.61095958  0.40587596    -0.83800
C794        C  0.20174871  0.67207895  0.25236373     0.97000
C795        C  0.18866674  0.61039473  0.19288260     1.04400
O796        O  0.20665295  0.62244861  0.30619621    -1.12700
O797        O  0.18695128  0.56795316  0.33894982    -0.75200
O798        O  0.15248146  0.57369701  0.32061680    -0.78700
O799        O  0.22433716  0.67631081  0.26739161    -0.79400
C800        C  0.16277719  0.55844830  0.32488590     0.95900
O801        O  0.16673379  0.62805358  0.35698726    -0.77300
O802        O  0.24402002  0.60128926  0.32618289    -0.82500
C803        C  0.26173266  0.66478906  0.36534299     0.98500
C804        C  0.25333235  0.60594368  0.28289199     1.04400
O805        O  0.26201450  0.66655469  0.31934378    -0.78200
C806        C  0.17218962  0.62284368  0.39888982     1.02700
Fe807      Fe  0.16431398  0.57225737  0.89260270     1.65800
Fe808      Fe  0.20995917  0.62026255  0.81641961     1.73200
Fe809      Fe  0.23104958  0.60057955  0.91601048     1.54400
O810        O  0.20909265  0.59395400  0.97951393    -0.81900
O811        O  0.23821137  0.61039523  0.79113237    -0.80200
O812        O  0.16893369  0.58889727  0.96003225    -0.84400
O813        O  0.17402874  0.54424028  0.92091985    -0.79200
O814        O  0.24585961  0.64139710  0.92450756    -0.81000
O815        O  0.18144876  0.58738287  0.77464566    -0.83800
C816        C  0.19496338  0.54194116  0.92616740     0.97000
C817        C  0.18663258  0.59202194  0.99086441     1.04400
O818        O  0.20183532  0.59762466  0.87462892    -1.12700
O819        O  0.18325405  0.63344112  0.83651730    -0.75200
O820        O  0.14907760  0.59715256  0.87020840    -0.78700
O821        O  0.21814798  0.55994086  0.91215893    -0.79400
C822        C  0.15997914  0.62165878  0.85583051     0.95900
O823        O  0.15717548  0.55352520  0.82680907    -0.77300
O824        O  0.23972639  0.65499363  0.85202454    -0.82500
C825        C  0.25692988  0.60880205  0.81301422     0.98500
C826        C  0.24996539  0.66009305  0.89453360     1.04400
O827        O  0.25747089  0.60720915  0.85892578    -0.78200
C828        C  0.16441986  0.56253624  0.78407526     1.02700
Fe829      Fe  0.06725464  0.66885077  0.45901340     1.65800
Fe830      Fe  0.11334922  0.71756068  0.53388488     1.73200
Fe831      Fe  0.08948874  0.73541459  0.43495841     1.54400
O832        O  0.08782931  0.71516693  0.37281356    -0.81900
O833        O  0.10377425  0.74643634  0.55689732    -0.80200
O834        O  0.08372869  0.67481342  0.38998397    -0.84400
O835        O  0.03692425  0.67404589  0.43014933    -0.79200
O836        O  0.13064033  0.75556550  0.42847580    -0.81000
O837        O  0.08090952  0.68959700  0.57723796    -0.83800
C838        C  0.03335257  0.69375535  0.41897187     0.97000
C839        C  0.08687124  0.69324664  0.35992860     1.04400
O840        O  0.09006608  0.70739384  0.47621500    -1.12700
O841        O  0.12759476  0.69112763  0.51790171    -0.75200
O842        O  0.09393640  0.65648136  0.48074954    -0.78700
O843        O  0.04808665  0.71737327  0.43571349    -0.79400
C844        C  0.11761603  0.66818293  0.49749310     0.95900
O845        O  0.04906679  0.66084671  0.52597953    -0.77300
O846        O  0.14701617  0.74661657  0.49524989    -0.82500
C847        C  0.09650049  0.76166814  0.53586329     0.98500
C848        C  0.15024048  0.75827680  0.45411922     1.04400
O849        O  0.09094650  0.75963256  0.49116886    -0.78200
C850        C  0.05703791  0.67034260  0.56825474     1.02700
Fe851      Fe  0.32918581  0.94208497  0.38655076     1.65800
Fe852      Fe  0.28518100  0.89123951  0.31328648     1.73200
Fe853      Fe  0.26268487  0.90968616  0.41232688     1.54400
O854        O  0.27996426  0.90305034  0.47164201    -0.81900
O855        O  0.25063878  0.89344557  0.29602783    -0.80200
O856        O  0.32290657  0.93499102  0.46080659    -0.84400
O857        O  0.31752622  0.97093604  0.39045894    -0.79200
O858        O  0.24053069  0.86848751  0.40274533    -0.81000
O859        O  0.30642913  0.92529182  0.26862735    -0.83800
C860        C  0.30259619  0.97056206  0.42475643     0.97000
C861        C  0.30321577  0.91940561  0.48800451     1.04400
O862        O  0.29246537  0.91405523  0.37083254    -1.12700
O863        O  0.31874993  0.88600124  0.32515775    -0.75200
O864        O  0.34294187  0.91494292  0.38380495    -0.78700
O865        O  0.28013098  0.94971475  0.43355816    -0.79400
C866        C  0.33769793  0.89494245  0.35642041     0.95900
O867        O  0.34039159  0.95390073  0.31542959    -0.77300
O868        O  0.26246025  0.85534782  0.35258920    -0.82500
C869        C  0.23893455  0.90583868  0.31339662     0.98500
C870        C  0.24435305  0.85021338  0.38439263     1.04400
O871        O  0.24424484  0.91662637  0.35514763    -0.78200
C872        C  0.32812544  0.94764335  0.27516482     1.02700
Fe873      Fe  0.10345977  0.67462914  0.05861575     1.65800
Fe874      Fe  0.09847137  0.72105214  0.98879759     1.73200
Fe875      Fe  0.14063259  0.74090733  0.08509469     1.54400
O876        O  0.12186896  0.71729268  0.14639579    -0.81900
O877        O  0.13560168  0.75069649  0.96266746    -0.80200
O878        O  0.08776462  0.67665389  0.12380686    -0.84400
O879        O  0.13870060  0.68376618  0.09589461    -0.79200
O880        O  0.11723472  0.75803067  0.09480874    -0.81000
O881        O  0.10363260  0.69279192  0.94485662    -0.83800
C882        C  0.16149758  0.70492726  0.10089693     0.97000
C883        C  0.10102624  0.69437792  0.15571457     1.04400
O884        O  0.11419925  0.71252776  0.04400155    -1.12700
O885        O  0.05960384  0.69311733  0.01136765    -0.75200
O886        O  0.06519770  0.65818949  0.02782565    -0.78700
O887        O  0.16707313  0.72669085  0.07954714    -0.79400
C888        C  0.04989329  0.66842151  0.02341379     0.95900
O889        O  0.11962207  0.67235684  0.99417835    -0.77300
O890        O  0.09292310  0.75022802  0.02781032    -0.82500
C891        C  0.15756115  0.76768125  0.98280284     0.98500
C892        C  0.10066394  0.76129634  0.06956744     1.04400
O893        O  0.16128925  0.76702513  0.02815582    -0.78200
C894        C  0.11515821  0.67844431  0.95215111     1.02700
Fe895      Fe  0.09544053  0.94116372  0.11799782     1.65800
Fe896      Fe  0.09414547  0.89659483  0.20227714     1.73200
Fe897      Fe  0.13391361  0.91213830  0.10324279     1.54400
O898        O  0.11673447  0.91486690  0.04059859    -0.81900
O899        O  0.13202817  0.90689880  0.22822372    -0.80200
O900        O  0.08080894  0.91951681  0.05436979    -0.84400
O901        O  0.13103543  0.96599351  0.08099251    -0.79200
O902        O  0.10911857  0.87112593  0.10025936    -0.81000
O903        O  0.09891283  0.93193495  0.23712844    -0.83800
C904        C  0.15429440  0.96833552  0.07795652     0.97000
C905        C  0.09567569  0.91480089  0.02609461     1.04400
O906        O  0.10790162  0.91654618  0.14165005    -1.12700
O907        O  0.05482553  0.88290344  0.18034875    -0.75200
O908        O  0.05707628  0.91977666  0.14830021    -0.78700
O909        O  0.16052355  0.95311423  0.10158808    -0.79400
C910        C  0.04361716  0.89499760  0.16066095     0.95900
O911        O  0.11059973  0.96393726  0.17937915    -0.77300
O912        O  0.08944992  0.86018704  0.17326719    -0.82500
C913        C  0.15244039  0.90827689  0.20694155     0.98500
C914        C  0.09481829  0.85371245  0.13199322     1.04400
O915        O  0.15434863  0.90862152  0.16117357    -0.78200
C916        C  0.10902565  0.95675964  0.22350699     1.02700
Fe917      Fe  0.40015345  0.57363311  0.62516537     1.65800
Fe918      Fe  0.40451053  0.62453486  0.69834992     1.73200
Fe919      Fe  0.36471199  0.60546659  0.59808619     1.54400
O920        O  0.38923666  0.61175577  0.53928109    -0.81900
O921        O  0.36700078  0.62084994  0.71569887    -0.80200
O922        O  0.40443832  0.58262656  0.55206226    -0.84400
O923        O  0.36104143  0.54339657  0.61419347    -0.79200
O924        O  0.38308522  0.64670057  0.60557690    -0.81000
O925        O  0.39408768  0.59107454  0.74382773    -0.83800
C926        C  0.34431840  0.54414854  0.58496947     0.97000
C927        C  0.40066467  0.59859661  0.52506923     1.04400
O928        O  0.38984327  0.60116819  0.64070461    -1.12700
O929        O  0.44395202  0.63165609  0.68665605    -0.75200
O930        O  0.44048442  0.60067886  0.63315163    -0.78700
O931        O  0.34251586  0.56528057  0.57846272    -0.79400
C932        C  0.45456545  0.62175295  0.65827232     0.95900
O933        O  0.39651511  0.56078528  0.69557768    -0.77300
O934        O  0.41611617  0.66033222  0.65932527    -0.82500
C935        C  0.34335838  0.60953497  0.69729549     0.98500
C936        C  0.40388832  0.66526260  0.62577411     1.04400
O937        O  0.33872141  0.59956545  0.65479066    -0.78200
C938        C  0.39276738  0.56822188  0.73680021     1.02700
Fe939      Fe  0.43273504  0.84247817  0.95066834     1.65800
Fe940      Fe  0.38562249  0.79787708  0.02784426     1.73200
Fe941      Fe  0.40039307  0.77566863  0.92436701     1.54400
O942        O  0.40620361  0.79917966  0.86276058    -0.81900
O943        O  0.39615409  0.76941888  0.05068903    -0.80200
O944        O  0.41405204  0.84019262  0.88631203    -0.84400
O945        O  0.45760236  0.83110418  0.91503281    -0.79200
O946        O  0.36013903  0.76290290  0.92075068    -0.81000
O947        O  0.41943836  0.82735124  0.06700247    -0.83800
C948        C  0.45849179  0.80942698  0.90743067     0.97000
C949        C  0.40983408  0.82281224  0.85374899     1.04400
O950        O  0.40642369  0.80515294  0.96794062    -1.12700
O951        O  0.37273280  0.82491575  0.00696400    -0.75200
O952        O  0.41113679  0.85949615  0.98142050    -0.78700
O953        O  0.44026414  0.78634388  0.92188573    -0.79400
C954        C  0.38606153  0.84895099  0.99036581     0.95900
O955        O  0.45327084  0.84651588  0.01335623    -0.77300
O956        O  0.34978609  0.76704964  0.99691051    -0.82500
C957        C  0.39587019  0.74988983  0.02731530     0.98500
C958        C  0.34294871  0.75737601  0.95420984     1.04400
O959        O  0.39469798  0.74870780  0.98110042    -0.78200
C960        C  0.44457980  0.84129196  0.05657914     1.02700
C961        C  0.01462444  0.87903619  0.14669267    -0.00400
C962        C  0.00506641  0.85246462  0.12951935    -0.12200
C963        C  0.48099081  0.83893988  0.10316710     0.01900
C964        C  0.46529060  0.85152614  0.09514806    -0.00500
C965        C  0.47346578  0.87701738  0.11606176    -0.12200
C966        C  0.99796346  0.89088683  0.14148936     0.01800
H967        H  0.01759587  0.84308127  0.13276444     0.14700
H968        H  0.46164823  0.88694448  0.10969192     0.14700
C969        C  0.00587382  0.91743951  0.16090311     0.36400
C970        C  0.47407957  0.81322313  0.08095087     0.36300
N971        N  0.01221892  0.93868437  0.17668749    -0.44000
N972        N  0.46878914  0.79277093  0.06282383    -0.44000
C973        C  0.09180168  0.78015510  0.08984922    -0.00400
C974        C  0.08102195  0.79201218  0.05873008    -0.12200
C975        C  0.07861498  0.81440037  0.07384693     0.01900
C976        C  0.08684737  0.82518775  0.12088948    -0.00500
C977        C  0.09420430  0.81132484  0.15385652    -0.12200
C978        C  0.09704509  0.78926755  0.13901478     0.01800
H979        H  0.07616138  0.78505247  0.02159025     0.14700
H980        H  0.10040635  0.81941880  0.19013512     0.14700
C981        C  0.10748375  0.77822247  0.17485419     0.36400
C982        C  0.06845620  0.82661050  0.04002540     0.36300
N983        N  0.11616368  0.76994707  0.20399712    -0.44000
N984        N  0.06011817  0.83630317  0.01308275    -0.44000
C985        C  0.21754403  0.90719565  0.28513664    -0.00400
C986        C  0.19759450  0.90990118  0.31060391    -0.12200
C987        C  0.17648046  0.91074856  0.28648262     0.01900
C988        C  0.17493090  0.90888764  0.23532157    -0.00500
C989        C  0.19529321  0.90674315  0.20987196    -0.12200
C990        C  0.21633842  0.90582624  0.23403307     0.01800
H991        H  0.19821358  0.91098124  0.34989746     0.14700
H992        H  0.19479129  0.90550633  0.17061012     0.14700
C993        C  0.23666838  0.90424781  0.20505483     0.36400
C994        C  0.15694534  0.91358287  0.31561891     0.36300
N995        N  0.25292020  0.90312129  0.18152412    -0.44000
N996        N  0.14137054  0.91585987  0.33921004    -0.44000
C997        C  0.31360609  0.99170303  0.46256575    -0.00400
C998        C  0.29604764  0.49735380  0.48945125    -0.12200
C999        C  0.30474200  0.51303834  0.53182912     0.01900
C1000       C  0.33110016  0.52223852  0.54910733    -0.00500
C1001       C  0.34822855  0.51560752  0.52331493    -0.12200
C1002       C  0.34009382  0.00128076  0.47993253     0.01800
H1003       H  0.27535945  0.48924145  0.47759699     0.14700
H1004       H  0.36875077  0.02336363  0.53543021     0.14700
C1005       C  0.35938603  0.99595975  0.45524242     0.36400
C1006       C  0.28600145  0.51856001  0.55771359     0.36300
N1007       N  0.37487069  0.99173136  0.43554171    -0.44000
N1008       N  0.27059178  0.52254076  0.57825019    -0.44000
C1009       C  0.17783228  0.77699163  0.43542106    -0.00400
C1010       C  0.19790025  0.79388242  0.46812392    -0.12200
C1011       C  0.22169000  0.81641794  0.45147840     0.01900
C1012       C  0.22584646  0.82219576  0.40122413    -0.00500
C1013       C  0.20746138  0.80339299  0.36833321    -0.12200
C1014       C  0.18353251  0.78089220  0.38494783     0.01800
H1015       H  0.19414316  0.79079695  0.50683902     0.14700
H1016       H  0.21059704  0.80753039  0.32971945     0.14700
C1017       C  0.16464542  0.76288777  0.34930533     0.36400
C1018       C  0.24083251  0.83425931  0.48694132     0.36300
N1019       N  0.14951378  0.74855266  0.32067709    -0.44000
N1020       N  0.25603255  0.84827328  0.51579094    -0.44000
C1021       C  0.09238296  0.68870405  0.20610728     0.08000
C1022       C  0.10126205  0.67437656  0.23538379    -0.12200
C1023       C  0.09820363  0.67387364  0.28593604     0.01900
C1024       C  0.08771924  0.68937222  0.30717397    -0.00500
C1025       C  0.07755538  0.70231406  0.27693724    -0.12200
C1026       C  0.07883828  0.70108672  0.22679932     0.01800
H1027       H  0.11130244  0.66436531  0.21889519     0.14700
H1028       H  0.06826774  0.71329688  0.29244437     0.14700
C1029       C  0.06556532  0.71195986  0.19699072     0.36400
C1030       C  0.10683120  0.65832595  0.31494309     0.36300
N1031       N  0.05449465  0.72003633  0.17279125    -0.44000
N1032       N  0.11357142  0.64576679  0.33835872    -0.44000
C1033       C  0.03635006  0.65916373  0.60720167    -0.00400
C1034       C  0.02643674  0.67564996  0.62568462    -0.12200
C1035       C  0.00076483  0.66414554  0.64756279     0.01900
C1036       C  0.48444700  0.63550683  0.65093891    -0.00500
C1037       C  0.49593419  0.61939561  0.63766960    -0.12200
C1038       C  0.02162313  0.63097963  0.61607273     0.01800
H1039       H  0.03756289  0.69734852  0.61874031     0.14700
H1040       H  0.48411898  0.59747153  0.64123958     0.14700
C1041       C  0.03180806  0.61338423  0.60054251     0.36400
C1042       C  0.99064566  0.68207220  0.66112606     0.36300
N1043       N  0.53994303  0.59928133  0.58800839    -0.44000
N1044       N  0.98269759  0.69659315  0.67194801    -0.44000
C1045       C  0.26881504  0.68860947  0.91013360    -0.00400
C1046       C  0.27442822  0.69380544  0.96004952    -0.12200
C1047       C  0.29685757  0.71779065  0.97632492     0.01900
C1048       C  0.31445937  0.73712767  0.94226506    -0.00500
C1049       C  0.30666355  0.73365221  0.89314828    -0.12200
C1050       C  0.28409873  0.70980626  0.87688121     0.01800
H1051       H  0.26219113  0.67833640  0.98650639     0.14700
H1052       H  0.31937865  0.74884148  0.86665332     0.14700
C1053       C  0.27858940  0.70704541  0.82549064     0.36400
C1054       C  0.30238530  0.72082219  0.02771070     0.36300
N1055       N  0.27416991  0.70494124  0.78429422    -0.44000
N1056       N  0.30673837  0.72331264  0.06892451    -0.44000
C1057       C  0.27906795  0.60891666  0.78397128    -0.00400
C1058       C  0.27329702  0.59648544  0.73827230    -0.12200
C1059       C  0.29354261  0.59623090  0.70954588     0.01900
C1060       C  0.32057152  0.60849810  0.72652836    -0.00500
C1061       C  0.32621946  0.62116281  0.77228747    -0.12200
C1062       C  0.30598579  0.62167290  0.80057266     0.01800
H1063       H  0.25276698  0.58684115  0.72484671     0.14700
H1064       H  0.34669992  0.63128367  0.78591157     0.14700
C1065       C  0.31373996  0.63685454  0.84525847     0.36400
C1066       C  0.28567230  0.58367479  0.66247718     0.36300
N1067       N  0.31976646  0.64914514  0.88094406    -0.44000
N1068       N  0.27918528  0.57382915  0.62459712    -0.44000
C1069       C  0.12395994  0.66754803  0.91146075    -0.00400
C1070       C  0.10736139  0.64025972  0.89854016    -0.12200
C1071       C  0.11806207  0.62539636  0.87587502     0.01900
C1072       C  0.14611210  0.63776875  0.86621703    -0.00500
C1073       C  0.16206643  0.66591066  0.87445054    -0.12200
C1074       C  0.15129897  0.68069959  0.89711896     0.01800
H1075       H  0.08634424  0.62991051  0.90964633     0.14700
H1076       H  0.18355058  0.67601110  0.86699461     0.14700
C1077       C  0.16926836  0.70879369  0.90930589     0.36400
C1078       C  0.09986250  0.59721631  0.86486990     0.36300
N1079       N  0.18377955  0.73129571  0.91898027    -0.44000
N1080       N  0.08504804  0.57465377  0.85614343    -0.44000
C1081       C  0.19237145  0.52001078  0.95796236    -0.00400
C1082       C  0.20488743  0.52767529  0.00372322    -0.12200
C1083       C  0.19422135  0.51018392  0.04381074     0.01900
C1084       C  0.17143241  0.98482801  0.03762474    -0.00500
C1085       C  0.16151051  0.97591271  0.99065297    -0.12200
C1086       C  0.17141647  0.49330744  0.95090508     0.01800
H1087       H  0.22094223  0.54837691  0.00943560     0.14700
H1088       H  0.14431624  0.95592671  0.98535542     0.14700
C1089       C  0.15865555  0.48422808  0.90420620     0.36400
C1090       C  0.20556086  0.51957450  0.09130149     0.36300
N1091       N  0.14889205  0.97684916  0.86677400    -0.44000
N1092       N  0.21468581  0.52696799  0.12941857    -0.44000
C1093       C  0.14696846  0.52937557  0.30929010    -0.00400
C1094       C  0.16133426  0.51616689  0.29540448    -0.12200
C1095       C  0.14882470  0.99158155  0.26989179     0.01900
C1096       C  0.12102119  0.97889168  0.25953819    -0.00500
C1097       C  0.10614009  0.99092653  0.27598258    -0.12200
C1098       C  0.11875601  0.51596013  0.30047133     0.01800
H1099       H  0.18297365  0.52613663  0.30077370     0.14700
H1100       H  0.08486889  0.98151638  0.26722179     0.14700
C1101       C  0.10233366  0.52781212  0.31379841     0.36400
C1102       C  0.16557387  0.98136509  0.25016253     0.36300
N1103       N  0.08904920  0.53725148  0.32402534    -0.44000
N1104       N  0.17925242  0.97364145  0.23383313    -0.44000
C1105       C  0.18161351  0.59433029  0.04205878    -0.00400
C1106       C  0.17849940  0.57380867  0.07441518    -0.12200
C1107       C  0.17812709  0.57758726  0.12448118     0.01900
C1108       C  0.18224479  0.60268580  0.14202196    -0.00500
C1109       C  0.18362497  0.62242515  0.10946567    -0.12200
C1110       C  0.18277705  0.61812987  0.05955120     0.01800
H1111       H  0.17711114  0.55523579  0.06057422     0.14700
H1112       H  0.18618034  0.64150167  0.12307761     0.14700
C1113       C  0.18447929  0.63873226  0.02646814     0.36400
C1114       C  0.17501720  0.55622359  0.15705062     0.36300
N1115       N  0.18551137  0.65456140  0.99867516    -0.44000
N1116       N  0.17231180  0.53905963  0.18324648    -0.44000
C1117       C  0.20047398  0.69158280  0.21922085    -0.00400
C1118       C  0.21141045  0.69395312  0.17244551    -0.12200
C1119       C  0.20086574  0.70120198  0.13289832     0.01900
C1120       C  0.17887780  0.70538491  0.14043376    -0.00500
C1121       C  0.17100760  0.70711321  0.18810002    -0.12200
C1122       C  0.18193048  0.70051587  0.22756349     0.01800
H1123       H  0.22629200  0.68767216  0.16607040     0.14700
H1124       H  0.15539812  0.71224441  0.19459483     0.14700
C1125       C  0.17342669  0.70205528  0.27625025     0.36400
C1126       C  0.21220804  0.70352635  0.08516383     0.36300
N1127       N  0.16738907  0.70368912  0.31568286    -0.44000
N1128       N  0.22173085  0.70619434  0.04702335    -0.44000
C1129       C  0.16142037  0.63123257  0.44007871    -0.00400
C1130       C  0.17561340  0.65851175  0.45454155    -0.12200
C1131       C  0.16249384  0.67054104  0.47880374     0.01900
C1132       C  0.13440766  0.65509981  0.48834118    -0.00500
C1133       C  0.12114465  0.62700737  0.47873307    -0.12200
C1134       C  0.13436787  0.61508492  0.45471930     0.01800
H1135       H  0.19642438  0.67107058  0.44306008     0.14700
H1136       H  0.09977978  0.61466551  0.48661538     0.14700
C1137       C  0.11914857  0.58672732  0.44180762     0.36400
C1138       C  0.17783559  0.69932009  0.48858613     0.36300
N1139       N  0.10692481  0.56396029  0.43170784    -0.44000
N1140       N  0.19023617  0.72237746  0.49640876    -0.44000
C1141       C  0.09559828  0.78368166  0.56338209    -0.00400
C1142       C  0.09894421  0.80663064  0.53762309    -0.12200
C1143       C  0.10011910  0.82896630  0.56142439     0.01900
C1144       C  0.09776634  0.82867252  0.61256019    -0.00500
C1145       C  0.09375179  0.80534597  0.63813253    -0.12200
C1146       C  0.09263584  0.78306208  0.61427822     0.01800
H1147       H  0.10130313  0.80748375  0.49848910     0.14700
H1148       H  0.09150323  0.80435579  0.67727723     0.14700
C1149       C  0.08788946  0.75977002  0.64315769     0.36400
C1150       C  0.10390355  0.85173419  0.53198557     0.36300
N1151       N  0.08408257  0.74121550  0.66660081    -0.44000
N1152       N  0.10677347  0.86987173  0.50826645    -0.44000
C1153       C  0.47984633  0.81152676  0.87495285    -0.00400
C1154       C  0.47232805  0.80041538  0.82805360    -0.12200
C1155       C  0.99079555  0.81077679  0.78915693     0.01900
C1156       C  0.01733134  0.83136777  0.79832292    -0.00500
C1157       C  0.02546348  0.83965050  0.84627053    -0.12200
C1158       C  0.50687531  0.83061671  0.88432946     0.01800
H1159       H  0.45137833  0.78605006  0.82051073     0.14700
H1160       H  0.04596912  0.85538079  0.85361566     0.14700
C1161       C  0.51523997  0.84320131  0.93137959     0.36400
C1162       C  0.98186946  0.80146207  0.74041557     0.36300
N1163       N  0.52162902  0.85347938  0.96895673    -0.44000
N1164       N  0.97479176  0.79394368  0.70131684    -0.44000
C1165       C  0.12743733  0.99144522  0.69639372    -0.00400
C1166       C  0.11259048  0.00410731  0.71058359    -0.12200
C1167       C  0.12496230  0.52899179  0.73503478     0.01900
C1168       C  0.15281268  0.54223375  0.74480857    -0.00500
C1169       C  0.16819370  0.53107699  0.72665932    -0.12200
C1170       C  0.15587622  0.50581509  0.70300287     0.01800
H1171       H  0.09089814  0.99364348  0.70568309     0.14700
H1172       H  0.18955981  0.54090452  0.73493164     0.14700
C1173       C  0.17275232  0.99455060  0.68982449     0.36400
C1174       C  0.10821487  0.53955219  0.75307059     0.36300
N1175       N  0.18623499  0.98529444  0.67983375    -0.44000
N1176       N  0.09463115  0.54785494  0.76744832    -0.44000
C1177       C  0.09033721  0.91257578  0.87135238    -0.00400
C1178       C  0.10307678  0.90042611  0.89609726    -0.12200
C1179       C  0.10269894  0.89877986  0.94596224     0.01900
C1180       C  0.09072899  0.91114631  0.97353087    -0.00500
C1181       C  0.07855073  0.92414759  0.94922252    -0.12200
C1182       C  0.07818539  0.92490376  0.89825540     0.01800
H1183       H  0.11298186  0.89124397  0.87615123     0.14700
H1184       H  0.07001147  0.93439775  0.96999001     0.14700
C1185       C  0.06538631  0.93834450  0.87480747     0.36400
C1186       C  0.11522197  0.88432234  0.96712367     0.36300
N1187       N  0.05527849  0.94931617  0.85607538    -0.44000
N1188       N  0.12553113  0.87294192  0.98350733    -0.44000
C1189       C  0.41354588  0.74041216  0.57210078    -0.00400
C1190       C  0.41795117  0.73792889  0.62176579    -0.12200
C1191       C  0.41817223  0.71481596  0.63985703     0.01900
C1192       C  0.41307874  0.69331226  0.60823798    -0.00500
C1193       C  0.41168679  0.69713374  0.55808787    -0.12200
C1194       C  0.41242673  0.72058016  0.53972118     0.01800
H1195       H  0.41962436  0.75335516  0.64700126     0.14700
H1196       H  0.40827105  0.68089926  0.53329356     0.14700
C1197       C  0.40965217  0.72243525  0.48799764     0.36400
C1198       C  0.42139544  0.71271117  0.69131247     0.36300
N1199       N  0.40764554  0.72389004  0.44647432    -0.44000
N1200       N  0.42420632  0.71108765  0.73251506    -0.44000
C1201       C  0.32424820  0.73008236  0.45076600    -0.00400
C1202       C  0.32540082  0.73112563  0.39980340    -0.12200
C1203       C  0.30577154  0.71026109  0.37137898     0.01900
C1204       C  0.28362016  0.68752583  0.39370669    -0.00500
C1205       C  0.28238745  0.68650680  0.44469584    -0.12200
C1206       C  0.30234234  0.70713850  0.47315777     0.01800
H1207       H  0.34200093  0.74827445  0.38165620     0.14700
H1208       H  0.26580457  0.66931038  0.46277994     0.14700
C1209       C  0.29982743  0.70351402  0.52517516     0.36400
C1210       C  0.30963891  0.71278937  0.31941300     0.36300
N1211       N  0.29778730  0.70042119  0.56681116    -0.44000
N1212       N  0.31289730  0.71479995  0.27781697    -0.44000
C1213       C  0.03345787  0.88978306  0.57630459    -0.00400
C1214       C  0.02074888  0.90525740  0.56948291    -0.12200
C1215       C  0.49607757  0.89460125  0.54521071     0.01900
C1216       C  0.48339012  0.86754189  0.52728737    -0.00500
C1217       C  0.49779776  0.85330879  0.52963242    -0.12200
C1218       C  0.02233611  0.86396624  0.55455894     0.01800
H1219       H  0.02925697  0.92513151  0.58622215     0.14700
H1220       H  0.48876396  0.83271939  0.51593473     0.14700
C1221       C  0.03413489  0.84680750  0.56155251     0.36400
C1222       C  0.48377320  0.91155207  0.54231198     0.36300
N1223       N  0.04307777  0.83258717  0.56707167    -0.44000
N1224       N  0.47416043  0.92537090  0.54056858    -0.44000
C1225       C  0.40757600  0.83295485  0.70243898    -0.00400
C1226       C  0.38711585  0.83235330  0.73175709    -0.12200
C1227       C  0.38891655  0.83200882  0.78217451     0.01900
C1228       C  0.41048380  0.83039988  0.80301855    -0.00500
C1229       C  0.43213960  0.83360103  0.77396871    -0.12200
C1230       C  0.43120657  0.83585270  0.72362699     0.01800
H1231       H  0.36938926  0.83128723  0.71517055     0.14700
H1232       H  0.44941264  0.83370081  0.79056084     0.14700
C1233       C  0.45409676  0.84035500  0.69434165     0.36400
C1234       C  0.36837669  0.83266228  0.81190312     0.36300
N1235       N  0.47253601  0.84462822  0.67053206    -0.44000
N1236       N  0.35247413  0.83384022  0.83637038    -0.44000
C1237       C  0.38197241  0.85682815  0.40619086    -0.00400
C1238       C  0.35685772  0.84077731  0.38404859    -0.12200
C1239       C  0.34278220  0.85276811  0.36304318     0.01900
C1240       C  0.35411283  0.88137006  0.36380154    -0.00500
C1241       C  0.38064047  0.89729941  0.38083960    -0.12200
C1242       C  0.39445524  0.88532434  0.40217773     0.01800
H1243       H  0.34697026  0.81884788  0.38773043     0.14700
H1244       H  0.38987056  0.91926979  0.38091456     0.14700
C1245       C  0.42044557  0.90272286  0.42386096     0.36400
C1246       C  0.31562406  0.83511890  0.34641994     0.36300
N1247       N  0.44123296  0.91667895  0.44129550    -0.44000
N1248       N  0.29382973  0.82086836  0.33326848    -0.44000
C1249       C  0.18031013  0.91982947  0.73751035    -0.00400
C1250       C  0.18541311  0.92224665  0.78784851    -0.12200
C1251       C  0.20869908  0.92334150  0.80706830     0.01900
C1252       C  0.22763198  0.92222997  0.77554863    -0.00500
C1253       C  0.22420167  0.92347261  0.72510930    -0.12200
C1254       C  0.20084996  0.92217039  0.70588007     0.01800
H1255       H  0.17011525  0.92124841  0.81272989     0.14700
H1256       H  0.23890031  0.92321973  0.70034567     0.14700
C1257       C  0.19743804  0.92036901  0.65387995     0.36400
C1258       C  0.21110548  0.92269159  0.85908921     0.36300
N1259       N  0.19479542  0.91887083  0.61218263    -0.44000
N1260       N  0.21283776  0.92214625  0.90085181    -0.44000
C1261       C  0.17978463  0.78943767  0.95291558    -0.00400
C1262       C  0.20217571  0.81045914  0.97683793    -0.12200
C1263       C  0.22337985  0.83179276  0.95121239     0.01900
C1264       C  0.22276845  0.83258045  0.89989543    -0.00500
C1265       C  0.20061151  0.81136071  0.87591401    -0.12200
C1266       C  0.17934988  0.79009052  0.90150404     0.01800
H1267       H  0.20315067  0.81049194  0.01611771     0.14700
H1268       H  0.19957869  0.81147289  0.83663972     0.14700
C1269       C  0.15761968  0.76930218  0.87340605     0.36400
C1270       C  0.24547791  0.85232120  0.97901852     0.36300
N1271       N  0.14031281  0.75271894  0.85060689    -0.44000
N1272       N  0.26309023  0.86873224  0.00152596    -0.44000
C1273       C  0.32262692  0.81907835  0.62204743    -0.00400
C1274       C  0.31519024  0.80499760  0.66663235    -0.12200
C1275       C  0.30783506  0.81543501  0.70641987     0.01900
C1276       C  0.30741146  0.83991045  0.70102180    -0.00500
C1277       C  0.31168169  0.85200433  0.65492965    -0.12200
C1278       C  0.31937162  0.84192509  0.61562318     0.01800
H1279       H  0.31808782  0.78762758  0.67203529     0.14700
H1280       H  0.31071405  0.87049178  0.65029355     0.14700
C1281       C  0.32615304  0.85670068  0.57020856     0.36400
C1282       C  0.30328730  0.80214307  0.75293351     0.36300
N1283       N  0.33172857  0.86850063  0.53381869    -0.44000
N1284       N  0.29963772  0.79126790  0.79005124    -0.44000
C1285       C  0.37217355  0.86488326  0.97762027    -0.00400
C1286       C  0.38767988  0.89072895  0.95609046    -0.12200
C1287       C  0.37551356  0.90381072  0.93239695     0.01900
C1288       C  0.34719833  0.89151725  0.93044143    -0.00500
C1289       C  0.33157599  0.86718194  0.95599561    -0.12200
C1290       C  0.34369413  0.85377563  0.97940983     0.01800
H1291       H  0.40946922  0.90011948  0.95479248     0.14700
H1292       H  0.30975991  0.85751463  0.95441569     0.14700
C1293       C  0.32609759  0.82789317  0.00205700     0.36400
C1294       C  0.39248084  0.92917345  0.90749112     0.36300
N1295       N  0.31187684  0.80713500  0.02009813    -0.44000
N1296       N  0.40590245  0.94945347  0.88733795    -0.44000
C1297       C  0.35768859  0.99617883  0.82240482    -0.00400
C1298       C  0.38382848  0.50638751  0.80319509    -0.12200
C1299       C  0.39727061  0.53168699  0.78002088     0.01900
C1300       C  0.38487988  0.54786646  0.77637409    -0.00500
C1301       C  0.36079445  0.53987501  0.80203339    -0.12200
C1302       C  0.34719741  0.01424574  0.82529076     0.01800
H1303       H  0.39299369  0.99347044  0.80191481     0.14700
H1304       H  0.35132404  0.55240635  0.80016824     0.14700
C1305       C  0.32185708  0.00669085  0.84899207     0.36400
C1306       C  0.42288283  0.53969506  0.75673866     0.36300
N1307       N  0.30162254  0.00081166  0.86819362    -0.44000
N1308       N  0.44330483  0.54615763  0.73774777    -0.44000
C1309       C  0.31252701  0.92441772  0.64218092    -0.00400
C1310       C  0.28973655  0.92326000  0.62093537    -0.12200
C1311       C  0.28673706  0.92221287  0.57082825     0.01900
C1312       C  0.30681966  0.92209553  0.54089016    -0.00500
C1313       C  0.33090943  0.92607102  0.56184194    -0.12200
C1314       C  0.33387555  0.92709947  0.61239393     0.01800
H1315       H  0.27352630  0.92171657  0.64379752     0.14700
H1316       H  0.34687097  0.92712354  0.53886153     0.14700
C1317       C  0.35793649  0.92871493  0.63264159     0.36400
C1318       C  0.26288211  0.92148055  0.55134374     0.36300
N1319       N  0.37727840  0.93003724  0.64868373    -0.44000
N1320       N  0.24378995  0.92099139  0.53595440    -0.44000
C1321       C  0.27208974  0.59645402  0.26599458    -0.00400
C1322       C  0.28911344  0.59398144  0.29972828    -0.12200
C1323       C  0.31229794  0.59346102  0.28434383     0.01900
C1324       C  0.31894045  0.59576203  0.23428399    -0.00500
C1325       C  0.29998387  0.59428099  0.20050304    -0.12200
C1326       C  0.27662982  0.59447847  0.21582772     0.01800
H1327       H  0.28551004  0.59453985  0.33825101     0.14700
H1328       H  0.30441215  0.59521295  0.16203003     0.14700
C1329       C  0.25844960  0.59406495  0.17899521     0.36400
C1330       C  0.32948395  0.59164790  0.32087412     0.36300
N1331       N  0.24398212  0.59383163  0.14940202    -0.44000
N1332       N  0.34309158  0.59006496  0.35029022    -0.44000
C1333       C  0.40067242  0.68650931  0.10925815    -0.00400
C1334       C  0.38673887  0.68048825  0.06492196    -0.12200
C1335       C  0.38478768  0.70058140  0.03803569     0.01900
C1336       C  0.39711740  0.72770590  0.05491300    -0.00500
C1337       C  0.41102993  0.73377713  0.09919580    -0.12200
C1338       C  0.41309333  0.71375099  0.12607115     0.01800
H1339       H  0.37661580  0.65976317  0.05168779     0.14700
H1340       H  0.42068403  0.75443056  0.11274429     0.14700
C1341       C  0.42868057  0.72212854  0.17021962     0.36400
C1342       C  0.36875268  0.69240310  0.99448550     0.36300
N1343       N  0.44120758  0.72891591  0.20554561    -0.44000
N1344       N  0.35584045  0.68599444  0.95963127    -0.44000
C1345       C  0.46839624  0.62292962  0.08097452    -0.00400
C1346       C  0.47506107  0.64501247  0.04962126    -0.12200
C1347       C  0.50073870  0.65912557  0.02719129     0.01900
C1348       C  0.02045026  0.65129108  0.03619974    -0.00500
C1349       C  0.01252424  0.62750659  0.06348400    -0.12200
C1350       C  0.48715211  0.61357524  0.08581309     0.01800
H1351       H  0.46092035  0.65241340  0.04514878     0.14700
H1352       H  0.02682790  0.62051626  0.07016775     0.14700
C1353       C  0.48145893  0.59029348  0.11545217     0.36400
C1354       C  0.50630252  0.68176932  0.99587687     0.36300
N1355       N  0.97723102  0.57159430  0.13874660    -0.44000
N1356       N  0.51060580  0.69977443  0.97045836    -0.44000
C1357       C  0.48684101  0.67902601  0.28887936    -0.00400
C1358       C  0.98419563  0.69475963  0.32569980    -0.12200
C1359       C  0.99944971  0.70076910  0.36869903     0.01900
C1360       C  0.01650835  0.68967756  0.37575150    -0.00500
C1361       C  0.52008184  0.67547234  0.33746547    -0.12200
C1362       C  0.50686402  0.67151426  0.29366264     0.01800
H1363       H  0.96871749  0.70049172  0.32271741     0.14700
H1364       H  0.53348466  0.66720864  0.34161436     0.14700
C1365       C  0.51243416  0.65727093  0.25572282     0.36400
C1366       C  0.99571087  0.71630264  0.40624951     0.36300
N1367       N  0.51678756  0.64576229  0.22552887    -0.44000
N1368       N  0.99277844  0.72881170  0.43640275    -0.44000
C1369       C  0.36749518  0.51974747  0.18858394    -0.00400
C1370       C  0.33953860  0.50743741  0.19693662    -0.12200
C1371       C  0.32554740  0.98230865  0.22099763     0.01900
C1372       C  0.33933384  0.96863458  0.23629517    -0.00500
C1373       C  0.36636185  0.47928863  0.22306215    -0.12200
C1374       C  0.38044136  0.50444692  0.19918537     0.01800
H1375       H  0.32920103  0.51876255  0.18938505     0.14700
H1376       H  0.37710633  0.46889107  0.23443210     0.14700
C1377       C  0.40861268  0.51464404  0.18858666     0.36400
C1378       C  0.29789122  0.97264582  0.23510587     0.36300
N1379       N  0.43116530  0.52241317  0.18043675    -0.44000
N1380       N  0.27582490  0.96513912  0.24685504    -0.44000
C1381       C  0.40809915  0.60061817  0.47388982    -0.00400
C1382       C  0.39665186  0.57677734  0.44607592    -0.12200
C1383       C  0.39769419  0.57809083  0.39540932     0.01900
C1384       C  0.41061721  0.60371192  0.37248572    -0.00500
C1385       C  0.42420592  0.62737167  0.40071788    -0.12200
C1386       C  0.42298757  0.62599874  0.45111562     0.01800
H1387       H  0.38538050  0.55723494  0.46382172     0.14700
H1388       H  0.43529434  0.64711980  0.38331156     0.14700
C1389       C  0.43703985  0.65078849  0.47876105     0.36400
C1390       C  0.38367246  0.55317583  0.36812510     0.36300
N1391       N  0.44849504  0.67058145  0.50100007    -0.44000
N1392       N  0.37241578  0.53325101  0.34615734    -0.44000
Fe1393     Fe  0.93043379  0.10173523  0.22408597     1.65800
Fe1394     Fe  0.88709407  0.10356004  0.14161406     1.73200
Fe1395     Fe  0.90660317  0.14515766  0.24122407     1.54400
O1396       O  0.90929736  0.12830971  0.30546466    -0.81900
O1397       O  0.89561659  0.14198932  0.11728054    -0.80200
O1398       O  0.91185229  0.09105120  0.29072243    -0.84400
O1399       O  0.95832507  0.13789629  0.25245538    -0.79200
O1400       O  0.86562360  0.12196102  0.24519974    -0.81000
O1401       O  0.92211883  0.10977953  0.10290594    -0.83800
C1402       C  0.96364237  0.16224655  0.25754231     0.97000
C1403       C  0.91006124  0.10741971  0.31974741     1.04400
O1404       O  0.90803585  0.11693594  0.20174651    -1.12700
O1405       O  0.87363141  0.06246100  0.15754926    -0.75200
O1406       O  0.90576379  0.06259005  0.20225218    -0.78700
O1407       O  0.94782062  0.17043015  0.24294601    -0.79400
C1408       C  0.88342695  0.04996453  0.18084584     0.95900
O1409       O  0.95110353  0.11198491  0.15988496    -0.77300
O1410       O  0.85169505  0.09756791  0.17680294    -0.82500
C1411       C  0.90042852  0.16394876  0.13817371     0.98500
C1412       C  0.84704739  0.10514537  0.21778245     1.04400
O1413       O  0.90413721  0.16699470  0.18349143    -0.78200
C1414       C  0.94548706  0.11399865  0.11607965     1.02700
Fe1415     Fe  0.83444040  0.41372500  0.78653773     1.65800
Fe1416     Fe  0.78961397  0.41544461  0.86568181     1.73200
Fe1417     Fe  0.76789340  0.37432316  0.76676453     1.54400
O1418       O  0.78814644  0.39462970  0.70457365    -0.81900
O1419       O  0.76043605  0.37752760  0.89038076    -0.80200
O1420       O  0.82901027  0.42943110  0.72282873    -0.84400
O1421       O  0.82585994  0.37925140  0.74776399    -0.79200
O1422       O  0.74919544  0.39697372  0.76486130    -0.81000
O1423       O  0.81837638  0.40912861  0.90419009    -0.83800
C1424       C  0.80573309  0.35586077  0.74169888     0.97000
C1425       C  0.80989183  0.41616105  0.69310146     1.04400
O1426       O  0.79704011  0.40105970  0.80669317    -1.12700
O1427       O  0.81694126  0.45545321  0.84658969    -0.75200
O1428       O  0.85096782  0.45150801  0.81853010    -0.78700
O1429       O  0.78358812  0.34855431  0.76298670    -0.79400
C1430       C  0.84093752  0.46613459  0.83088977     0.95900
O1431       O  0.84032592  0.39790975  0.84888434    -0.77300
O1432       O  0.75999283  0.42194558  0.83216311    -0.82500
C1433       C  0.74399722  0.35527180  0.87013875     0.98500
C1434       C  0.74709819  0.41374859  0.79223135     1.04400
O1435       O  0.74451462  0.35171924  0.82474734    -0.78200
C1436       C  0.83433015  0.40006295  0.89254294     1.02700
Fe1437     Fe  0.90090879  0.34644835  0.55266770     1.65800
Fe1438     Fe  0.90420332  0.30038782  0.47919153     1.73200
Fe1439     Fe  0.86496430  0.27981161  0.58048527     1.54400
O1440       O  0.88158599  0.30322843  0.64158602    -0.81900
O1441       O  0.86638704  0.27129527  0.45580309    -0.80200
O1442       O  0.91551624  0.34371209  0.61899826    -0.84400
O1443       O  0.86458426  0.33661718  0.58490914    -0.79200
O1444       O  0.89111584  0.26507777  0.58802617    -0.81000
O1445       O  0.89939163  0.32888000  0.43672065    -0.83800
C1446       C  0.84172349  0.31567807  0.59148653     0.97000
C1447       C  0.90160902  0.32636789  0.65120834     1.04400
O1448       O  0.88978555  0.30869192  0.53703962    -1.12700
O1449       O  0.94346820  0.32794896  0.49936693    -0.75200
O1450       O  0.93939771  0.36271887  0.52463311    -0.78700
O1451       O  0.83669217  0.29218103  0.57867925    -0.79400
C1452       C  0.95384454  0.35210306  0.51514326     0.95900
O1453       O  0.88665037  0.35107941  0.48810750    -0.77300
O1454       O  0.90960695  0.27051498  0.51460146    -0.82500
C1455       C  0.84629802  0.25278443  0.47878691     0.98500
C1456       C  0.90479040  0.26030353  0.55726832     1.04400
O1457       O  0.84469476  0.25287810  0.52474834    -0.78200
C1458       C  0.88994083  0.34476686  0.44558200     1.02700
Fe1459     Fe  0.56450318  0.40880020  0.72313974     1.65800
Fe1460     Fe  0.61186059  0.41087954  0.64478175     1.73200
Fe1461     Fe  0.59291614  0.36985407  0.74323053     1.54400
O1462       O  0.58836218  0.38672290  0.80489262    -0.81900
O1463       O  0.60235523  0.37286814  0.61951198    -0.80200
O1464       O  0.58255894  0.42207565  0.78998177    -0.84400
O1465       O  0.53783717  0.37211478  0.75589238    -0.79200
O1466       O  0.63353511  0.39469406  0.75016716    -0.81000
O1467       O  0.57846820  0.40650765  0.60486312    -0.83800
C1468       C  0.53565473  0.34879942  0.76051324     0.97000
C1469       C  0.58692396  0.40725966  0.81901680     1.04400
O1470       O  0.58982405  0.39648769  0.70332937    -1.12700
O1471       O  0.62440826  0.45037800  0.66542189    -0.75200
O1472       O  0.58764962  0.44805892  0.69694753    -0.78700
O1473       O  0.55223810  0.34291167  0.74129997    -0.79400
C1474       C  0.61226366  0.46166274  0.68453577     0.95900
O1475       O  0.54487377  0.39570529  0.65835795    -0.77300
O1476       O  0.64706846  0.41597954  0.67893628    -0.82500
C1477       C  0.59945421  0.35173648  0.64091982     0.98500
C1478       C  0.65207073  0.41005544  0.72101387     1.04400
O1479       O  0.59791782  0.34944135  0.68662521    -0.78200
C1480       C  0.55365253  0.39792089  0.61522570     1.02700
Fe1481     Fe  0.66945137  0.11262737  0.29178862     1.65800
Fe1482     Fe  0.71441164  0.10663541  0.36248657     1.73200
Fe1483     Fe  0.73527274  0.14717545  0.26307591     1.54400
O1484       O  0.71157302  0.13084167  0.20182425    -0.81900
O1485       O  0.74325755  0.14431540  0.38788465    -0.80200
O1486       O  0.67124603  0.09715166  0.22551736    -0.84400
O1487       O  0.68021264  0.14947588  0.25840164    -0.79200
O1488       O  0.74876836  0.12036490  0.25353953    -0.81000
O1489       O  0.68597027  0.11087348  0.40583515    -0.83800
C1490       C  0.70170005  0.17205229  0.25239436     0.97000
C1491       C  0.68860836  0.11036209  0.19287852     1.04400
O1492       O  0.70660736  0.12241845  0.30618103    -1.12700
O1493       O  0.68694326  0.06793253  0.33888041    -0.75200
O1494       O  0.65246316  0.07367825  0.32064880    -0.78700
O1495       O  0.72428154  0.17627735  0.26744744    -0.79400
C1496       C  0.66276218  0.05842925  0.32485227     0.95900
O1497       O  0.66670055  0.12802787  0.35696895    -0.77300
O1498       O  0.74402775  0.10132605  0.32618345    -0.82500
C1499       C  0.76164478  0.16478701  0.36534998     0.98500
C1500       C  0.75332022  0.10595774  0.28287697     1.04400
O1501       O  0.76196362  0.16651737  0.31934231    -0.78200
C1502       C  0.67212041  0.12277245  0.39886288     1.02700
Fe1503     Fe  0.66425932  0.07224570  0.89258641     1.65800
Fe1504     Fe  0.70988991  0.12025783  0.81641448     1.73200
Fe1505     Fe  0.73099309  0.10062028  0.91601915     1.54400
O1506       O  0.70901346  0.09397010  0.97950909    -0.81900
O1507       O  0.73810972  0.11036364  0.79113317    -0.80200
O1508       O  0.66885355  0.08890472  0.95999752    -0.84400
O1509       O  0.67400409  0.04426639  0.92098902    -0.79200
O1510       O  0.74576882  0.14142879  0.92452107    -0.81000
O1511       O  0.68136691  0.08738237  0.77465929    -0.83800
C1512       C  0.69495575  0.04199704  0.92623352     0.97000
C1513       C  0.68654549  0.09202598  0.99084589     1.04400
O1514       O  0.70177470  0.09763397  0.87462865    -1.12700
O1515       O  0.68320049  0.13343185  0.83653923    -0.75200
O1516       O  0.64899790  0.09710660  0.87009354    -0.78700
O1517       O  0.71812277  0.05999338  0.91214816    -0.79400
C1518       C  0.65991200  0.12162765  0.85578985     0.95900
O1519       O  0.65716128  0.05349774  0.82681558    -0.77300
O1520       O  0.73967916  0.15499654  0.85198124    -0.82500
C1521       C  0.75685221  0.10882037  0.81301711     0.98500
C1522       C  0.74990321  0.16011371  0.89450269     1.04400
O1523       O  0.75742793  0.10727953  0.85893482    -0.78200
C1524       C  0.66438035  0.06252343  0.78408279     1.02700
Fe1525     Fe  0.56713782  0.16873027  0.45892118     1.65800
Fe1526     Fe  0.61322547  0.21741709  0.53382917     1.73200
Fe1527     Fe  0.58937990  0.23530004  0.43496327     1.54400
O1528       O  0.58769465  0.21503868  0.37282865    -0.81900
O1529       O  0.60367775  0.24630423  0.55686828    -0.80200
O1530       O  0.58367553  0.17471390  0.38993517    -0.84400
O1531       O  0.53685149  0.17397173  0.42996688    -0.79200
O1532       O  0.63051757  0.25543145  0.42842027    -0.81000
O1533       O  0.58075038  0.18945433  0.57714072    -0.83800
C1534       C  0.53326603  0.19369495  0.41897219     0.97000
C1535       C  0.58679661  0.19315129  0.35990622     1.04400
O1536       O  0.58995637  0.20726868  0.47616899    -1.12700
O1537       O  0.62744643  0.19097112  0.51782804    -0.75200
O1538       O  0.59377083  0.15630944  0.48074594    -0.78700
O1539       O  0.54798752  0.21727450  0.43586255    -0.79400
C1540       C  0.61745951  0.16801885  0.49744899     0.95900
O1541       O  0.54890395  0.16073731  0.52584175    -0.77300
O1542       O  0.64690285  0.24647807  0.49518047    -0.82500
C1543       C  0.59644224  0.26156677  0.53584060     0.98500
C1544       C  0.65012134  0.25814896  0.45405476     1.04400
O1545       O  0.59089092  0.25954840  0.49114999    -0.78200
C1546       C  0.55686465  0.17023068  0.56812267     1.02700
Fe1547     Fe  0.82904215  0.44207204  0.38644482     1.65800
Fe1548     Fe  0.78501018  0.39118507  0.31330686     1.73200
Fe1549     Fe  0.76256058  0.40970426  0.41226004     1.54400
O1550       O  0.77983104  0.40299838  0.47150176    -0.81900
O1551       O  0.75044378  0.39336961  0.29611503    -0.80200
O1552       O  0.82275807  0.43499574  0.46071836    -0.84400
O1553       O  0.81738719  0.47092372  0.39029562    -0.79200
O1554       O  0.74032415  0.36850407  0.40262303    -0.81000
O1555       O  0.80621612  0.42518657  0.26855119    -0.83800
C1556       C  0.80252299  0.47056705  0.42469288     0.97000
C1557       C  0.80306704  0.41937926  0.48789614     1.04400
O1558       O  0.79232440  0.41404192  0.37077776    -1.12700
O1559       O  0.81860703  0.38598578  0.32511273    -0.75200
O1560       O  0.84279679  0.41493606  0.38374675    -0.78700
O1561       O  0.78006396  0.44972836  0.43356834    -0.79400
C1562       C  0.83756712  0.39494460  0.35635223     0.95900
O1563       O  0.84020791  0.45382314  0.31528278    -0.77300
O1564       O  0.76234758  0.35534370  0.35274548    -0.82500
C1565       C  0.73881508  0.40586084  0.31338675     0.98500
C1566       C  0.74418987  0.35022227  0.38443076     1.04400
O1567       O  0.74418719  0.41672544  0.35507513    -0.78200
C1568       C  0.82792983  0.44752769  0.27502527     1.02700
Fe1569     Fe  0.60342515  0.17461897  0.05861388     1.65800
Fe1570     Fe  0.59847036  0.22105720  0.98876121     1.73200
Fe1571     Fe  0.64068334  0.24088856  0.08498455     1.54400
O1572       O  0.62191695  0.21731394  0.14631800    -0.81900
O1573       O  0.63559687  0.25068673  0.96259046    -0.80200
O1574       O  0.58775004  0.17670025  0.12378424    -0.84400
O1575       O  0.63865675  0.18372510  0.09591762    -0.79200
O1576       O  0.61734045  0.25806701  0.09467861    -0.81000
O1577       O  0.60360909  0.19277113  0.94485254    -0.83800
C1578       C  0.66147622  0.20486576  0.10085624     0.97000
C1579       C  0.60105002  0.19442436  0.15566862     1.04400
O1580       O  0.61420302  0.21252026  0.04394736    -1.12700
O1581       O  0.55960036  0.19314304  0.01131853    -0.75200
O1582       O  0.56517406  0.15820432  0.02779729    -0.78700
O1583       O  0.66707581  0.22661308  0.07942451    -0.79400
C1584       C  0.54987934  0.16844411  0.02334000     0.95900
O1585       O  0.61956331  0.17230440  0.99419438    -0.77300
O1586       O  0.59293911  0.25024815  0.02779987    -0.82500
C1587       C  0.65757838  0.26764130  0.98269699     0.98500
C1588       C  0.60073589  0.26132927  0.06953704     1.04400
O1589       O  0.66133678  0.26696341  0.02802772    -0.78200
C1590       C  0.61510536  0.17839632  0.95216577     1.02700
Fe1591     Fe  0.59509150  0.44096534  0.11839229     1.65800
Fe1592     Fe  0.59398988  0.39647648  0.20254789     1.73200
Fe1593     Fe  0.63359300  0.41202000  0.10332760     1.54400
O1594       O  0.61629516  0.41473172  0.04079573    -0.81900
O1595       O  0.63193771  0.40695232  0.22832087    -0.80200
O1596       O  0.58029126  0.41921384  0.05489213    -0.84400
O1597       O  0.63057642  0.46576664  0.08110386    -0.79200
O1598       O  0.60879998  0.37099650  0.10035080    -0.81000
O1599       O  0.59866082  0.43179738  0.23738990    -0.83800
C1600       C  0.65386071  0.46817566  0.07801749     0.97000
C1601       C  0.59512214  0.41450831  0.02649820     1.04400
O1602       O  0.60763526  0.41640330  0.14190188    -1.12700
O1603       O  0.55463918  0.38264325  0.18062578    -0.75200
O1604       O  0.55684392  0.41960250  0.14913471    -0.78700
O1605       O  0.66016217  0.45301279  0.10166556    -0.79400
C1606       C  0.54340837  0.39476707  0.16113528     0.95900
O1607       O  0.61042812  0.46380342  0.17963275    -0.77300
O1608       O  0.58942116  0.36010374  0.17359666    -0.82500
C1609       C  0.65230273  0.40827388  0.20694817     0.98500
C1610       C  0.59466921  0.35360352  0.13224157     1.04400
O1611       O  0.65411866  0.40851052  0.16116337    -0.78200
C1612       C  0.60884526  0.45663210  0.22376231     1.02700
Fe1613     Fe  0.89997374  0.07360968  0.62499229     1.65800
Fe1614     Fe  0.90435690  0.12449063  0.69823677     1.73200
Fe1615     Fe  0.86452457  0.10544449  0.59801399     1.54400
O1616       O  0.88903706  0.11175863  0.53918100    -0.81900
O1617       O  0.86686240  0.12081883  0.71562846    -0.80200
O1618       O  0.90421583  0.08260650  0.55190047    -0.84400
O1619       O  0.86084934  0.04338433  0.61412847    -0.79200
O1620       O  0.88288959  0.14667519  0.60553666    -0.81000
O1621       O  0.89393874  0.09100734  0.74369730    -0.83800
C1622       C  0.84413199  0.04413076  0.58488687     0.97000
C1623       C  0.90045564  0.09859626  0.52494115     1.04400
O1624       O  0.88967134  0.10114055  0.64058581    -1.12700
O1625       O  0.94378896  0.13160159  0.68649689    -0.75200
O1626       O  0.94031087  0.10065571  0.63290704    -0.78700
O1627       O  0.84232771  0.06526046  0.57836233    -0.79400
C1628       C  0.95439584  0.12171339  0.65806505     0.95900
O1629       O  0.89638445  0.06075620  0.69537812    -0.77300
O1630       O  0.91595563  0.16029756  0.65921153    -0.82500
C1631       C  0.84321510  0.10950662  0.69725100     0.98500
C1632       C  0.90371236  0.16523361  0.62569050     1.04400
O1633       O  0.83855740  0.09952771  0.65475401    -0.78200
C1634       C  0.89263988  0.06816500  0.73662575     1.02700
Fe1635     Fe  0.93273949  0.34251046  0.95057720     1.65800
Fe1636     Fe  0.88560381  0.29790897  0.02771021     1.73200
Fe1637     Fe  0.90034589  0.27570953  0.92420957     1.54400
O1638       O  0.90618087  0.29924341  0.86262423    -0.81900
O1639       O  0.89613637  0.26944793  0.05052129    -0.80200
O1640       O  0.91407665  0.34026626  0.88622023    -0.84400
O1641       O  0.95758511  0.33111776  0.91491409    -0.79200
O1642       O  0.86009909  0.26297713  0.92058646    -0.81000
O1643       O  0.91941961  0.32737985  0.06689068    -0.83800
C1644       C  0.95844062  0.30942472  0.90728995     0.97000
C1645       C  0.90984087  0.32288955  0.85364014     1.04400
O1646       O  0.90640285  0.30518851  0.96780889    -1.12700
O1647       O  0.87272347  0.32495017  0.00681380    -0.75200
O1648       O  0.91114929  0.35953239  0.98135650    -0.78700
O1649       O  0.94020151  0.28635064  0.92175127    -0.79400
C1650       C  0.88606443  0.34898505  0.99021964     0.95900
O1651       O  0.95326400  0.34650750  0.01326707    -0.77300
O1652       O  0.84976532  0.26708221  0.99677663    -0.82500
C1653       C  0.89584349  0.24991810  0.02713132     0.98500
C1654       C  0.84291652  0.25742456  0.95406845     1.04400
O1655       O  0.89463674  0.24873263  0.98091930    -0.78200
C1656       C  0.94456621  0.34129406  0.05648680     1.02700
C1657       C  0.51444758  0.37882415  0.14697490    -0.00400
C1658       C  0.50496117  0.35233839  0.12941682    -0.12200
C1659       C  0.98099270  0.33893561  0.10301986     0.01900
C1660       C  0.96527426  0.35150891  0.09507001    -0.00500
C1661       C  0.97341766  0.37696677  0.11610381    -0.12200
C1662       C  0.49777192  0.39066851  0.14194390     0.01800
H1663       H  0.51750398  0.34296345  0.13253189     0.14700
H1664       H  0.96157723  0.38687741  0.10982174     0.14700
C1665       C  0.50561388  0.41712370  0.16175455     0.36400
C1666       C  0.97406334  0.31321079  0.08081709     0.36300
N1667       N  0.51191929  0.43829127  0.17786281    -0.44000
N1668       N  0.96874357  0.29274164  0.06272704    -0.44000
C1669       C  0.59188494  0.28017420  0.08996440    -0.00400
C1670       C  0.58079611  0.29184204  0.05910156    -0.12200
C1671       C  0.57827415  0.31414811  0.07436545     0.01900
C1672       C  0.58679163  0.32509378  0.12122832    -0.00500
C1673       C  0.59448741  0.31142302  0.15398744    -0.12200
C1674       C  0.59735035  0.28939505  0.13905732     0.01800
H1675       H  0.57570855  0.28475924  0.02206792     0.14700
H1676       H  0.60087708  0.31962136  0.19015323     0.14700
C1677       C  0.60795959  0.27844055  0.17474975     0.36400
C1678       C  0.56757778  0.32604209  0.04097037     0.36300
N1679       N  0.61674314  0.27020495  0.20377059    -0.44000
N1680       N  0.55876960  0.33546202  0.01442702    -0.44000
C1681       C  0.71744175  0.40724106  0.28509681    -0.00400
C1682       C  0.69766998  0.41027134  0.31051173    -0.12200
C1683       C  0.67655996  0.41112007  0.28638620     0.01900
C1684       C  0.67482846  0.40892809  0.23527058    -0.00500
C1685       C  0.69502209  0.40647846  0.20985037    -0.12200
C1686       C  0.71606803  0.40556264  0.23401946     0.01800
H1687       H  0.69841851  0.41160280  0.34977867     0.14700
H1688       H  0.69437331  0.40498331  0.17061852     0.14700
C1689       C  0.73621474  0.40363993  0.20506538     0.36400
C1690       C  0.65721926  0.41430729  0.31547120     0.36300
N1691       N  0.75232110  0.40222950  0.18156670    -0.44000
N1692       N  0.64179770  0.41686599  0.33901362    -0.44000
C1693       C  0.81361617  0.49167543  0.46254877    -0.00400
C1694       C  0.79592890  0.99731334  0.48932743    -0.12200
C1695       C  0.80458560  0.01297910  0.53172846     0.01900
C1696       C  0.83095319  0.02223323  0.54900119    -0.00500
C1697       C  0.84812583  0.01566935  0.52319424    -0.12200
C1698       C  0.84010973  0.50117757  0.47982274     0.01800
H1699       H  0.77523402  0.98915311  0.47747654     0.14700
H1700       H  0.86882385  0.52313368  0.53532330     0.14700
C1701       C  0.85936247  0.49587853  0.45492777     0.36400
C1702       C  0.78578973  0.01839784  0.55766566     0.36300
N1703       N  0.87482209  0.49167852  0.43505894    -0.44000
N1704       N  0.77032727  0.02228201  0.57824248    -0.44000
C1705       C  0.67770429  0.27690622  0.43536206    -0.00400
C1706       C  0.69775908  0.29379585  0.46808841    -0.12200
C1707       C  0.72151328  0.31639251  0.45148705     0.01900
C1708       C  0.72566933  0.32220720  0.40124588    -0.00500
C1709       C  0.70729687  0.30342412  0.36831975    -0.12200
C1710       C  0.68338624  0.28088727  0.38488588     0.01800
H1711       H  0.69400651  0.29066741  0.50679892     0.14700
H1712       H  0.71042529  0.30760595  0.32971692     0.14700
C1713       C  0.66448873  0.26295196  0.34918344     0.36400
C1714       C  0.74060933  0.33425101  0.48698920     0.36300
N1715       N  0.64935081  0.24868675  0.32049277    -0.44000
N1716       N  0.75576390  0.34827706  0.51588328    -0.44000
C1717       C  0.59242899  0.18877473  0.20606989     0.08000
C1718       C  0.60124521  0.17437801  0.23530697    -0.12200
C1719       C  0.59816764  0.17383569  0.28585895     0.01900
C1720       C  0.58769497  0.18933526  0.30713957    -0.00500
C1721       C  0.57761333  0.20236624  0.27693174    -0.12200
C1722       C  0.57894983  0.20121576  0.22679586     0.01800
H1723       H  0.61125417  0.16434266  0.21878822     0.14700
H1724       H  0.56835304  0.21337062  0.29245749     0.14700
C1725       C  0.56579528  0.21223352  0.19702909     0.36400
C1726       C  0.60677190  0.15825119  0.31481597     0.36300
N1727       N  0.55481389  0.22042900  0.17287485    -0.44000
N1728       N  0.61349745  0.14566055  0.33817594    -0.44000
C1729       C  0.53614897  0.15909221  0.60702928    -0.00400
C1730       C  0.52621605  0.17559736  0.62534152    -0.12200
C1731       C  0.50054771  0.16411987  0.64722566     0.01900
C1732       C  0.98427592  0.13546358  0.65074640    -0.00500
C1733       C  0.99576817  0.11934842  0.63754195    -0.12200
C1734       C  0.52142168  0.13091867  0.61601515     0.01800
H1735       H  0.53732359  0.19728138  0.61825512     0.14700
H1736       H  0.98394668  0.09742467  0.64110916     0.14700
C1737       C  0.53159194  0.11329808  0.60056983     0.36400
C1738       C  0.49040017  0.18205354  0.66057518     0.36300
N1739       N  0.03980953  0.09922638  0.58806016    -0.44000
N1740       N  0.48243003  0.19658119  0.67121680    -0.44000
C1741       C  0.76876944  0.18863409  0.91006710    -0.00400
C1742       C  0.77439814  0.19384473  0.95997622    -0.12200
C1743       C  0.79683762  0.21782943  0.97622408     0.01900
C1744       C  0.81442679  0.23716248  0.94214503    -0.00500
C1745       C  0.80661891  0.23367109  0.89303340    -0.12200
C1746       C  0.78405378  0.20981704  0.87679040     0.01800
H1747       H  0.76216804  0.17838435  0.98645127     0.14700
H1748       H  0.81932749  0.24885226  0.86652129     0.14700
C1749       C  0.77855091  0.20703006  0.82539766     0.36400
C1750       C  0.80239457  0.22085712  0.02760033     0.36300
N1751       N  0.77413991  0.20490235  0.78419813    -0.44000
N1752       N  0.80677581  0.22334232  0.06880500    -0.44000
C1753       C  0.77897543  0.10893388  0.78395972    -0.00400
C1754       C  0.77315556  0.09635666  0.73839343    -0.12200
C1755       C  0.79338947  0.09609964  0.70964638     0.01900
C1756       C  0.82044836  0.10849051  0.72650022    -0.00500
C1757       C  0.82614559  0.12131374  0.77211810    -0.12200
C1758       C  0.80592416  0.12184779  0.80039806     0.01800
H1759       H  0.75259863  0.08660834  0.72508437     0.14700
H1760       H  0.84665306  0.13155314  0.78561139     0.14700
C1761       C  0.81371099  0.13723893  0.84485674     0.36400
C1762       C  0.78547600  0.08342140  0.66268046     0.36300
N1763       N  0.81975319  0.14970673  0.88034514    -0.44000
N1764       N  0.77895591  0.07348578  0.62487413    -0.44000
C1765       C  0.62391561  0.16750691  0.91148984    -0.00400
C1766       C  0.60730199  0.14023571  0.89847204    -0.12200
C1767       C  0.61799863  0.12537664  0.87577657     0.01900
C1768       C  0.64605441  0.13773677  0.86620204    -0.00500
C1769       C  0.66202839  0.16586321  0.87455248    -0.12200
C1770       C  0.65126871  0.18064561  0.89725160     0.01800
H1771       H  0.58627453  0.12989556  0.90951277     0.14700
H1772       H  0.68352028  0.17595069  0.86717389     0.14700
C1773       C  0.66925945  0.20870884  0.90961080     0.36400
C1774       C  0.59979049  0.09721783  0.86463164     0.36300
N1775       N  0.68378486  0.23118393  0.91943840    -0.44000
N1776       N  0.58497090  0.07467358  0.85578311    -0.44000
C1777       C  0.69241308  0.02012340  0.95811669    -0.00400
C1778       C  0.70486911  0.02785089  0.00391810    -0.12200
C1779       C  0.69423340  0.01035325  0.04400130     0.01900
C1780       C  0.67091994  0.48464454  0.03759468    -0.00500
C1781       C  0.66078476  0.47582972  0.99070316    -0.12200
C1782       C  0.67155734  0.99337722  0.95103428     0.01800
H1783       H  0.72084736  0.04858668  0.00964557     0.14700
H1784       H  0.64341538  0.45594867  0.98549238     0.14700
C1785       C  0.65885001  0.98424711  0.90430860     0.36400
C1786       C  0.70551162  0.01977416  0.09151812     0.36300
N1787       N  0.64781229  0.47695448  0.86706861    -0.44000
N1788       N  0.71458937  0.02717955  0.12966013    -0.44000
C1789       C  0.64694353  0.02935915  0.30924806    -0.00400
C1790       C  0.66129680  0.01611274  0.29551570    -0.12200
C1791       C  0.64871120  0.49152143  0.26992794     0.01900
C1792       C  0.62088234  0.47878111  0.25976330    -0.00500
C1793       C  0.60601736  0.49082878  0.27623414    -0.12200
C1794       C  0.61874600  0.01598176  0.30027141     0.01800
H1795       H  0.68292689  0.02605649  0.30098699     0.14700
H1796       H  0.58473425  0.48140157  0.26755816     0.14700
C1797       C  0.60233837  0.02789055  0.31334521     0.36400
C1798       C  0.66546095  0.48134954  0.25002524     0.36300
N1799       N  0.58906866  0.03737911  0.32335459    -0.44000
N1800       N  0.67914640  0.47367636  0.23353833    -0.44000
C1801       C  0.68151136  0.09431427  0.04204368    -0.00400
C1802       C  0.67839297  0.07378315  0.07438367    -0.12200
C1803       C  0.67803019  0.07755431  0.12445606     0.01900
C1804       C  0.68217352  0.10265853  0.14201679    -0.00500
C1805       C  0.68354628  0.12240180  0.10947960    -0.12200
C1806       C  0.68267766  0.11811007  0.05956210     0.01800
H1807       H  0.67698976  0.05520753  0.06052478     0.14700
H1808       H  0.68610652  0.14147687  0.12310863     0.14700
C1809       C  0.68435316  0.13870939  0.02650193     0.36400
C1810       C  0.67488404  0.05617114  0.15701248     0.36300
N1811       N  0.68535911  0.15453646  0.99873167    -0.44000
N1812       N  0.67214119  0.03899155  0.18320478    -0.44000
C1813       C  0.70044767  0.19156326  0.21924022    -0.00400
C1814       C  0.71138128  0.19390795  0.17247066    -0.12200
C1815       C  0.70084306  0.20114719  0.13290222     0.01900
C1816       C  0.67885738  0.20533748  0.14040916    -0.00500
C1817       C  0.67100285  0.20710683  0.18806861    -0.12200
C1818       C  0.68192626  0.20052768  0.22755611     0.01800
H1819       H  0.72625504  0.18761421  0.16611889     0.14700
H1820       H  0.65540861  0.21226008  0.19454530     0.14700
C1821       C  0.67345085  0.20213188  0.27623491     0.36400
C1822       C  0.71219673  0.20345991  0.08518227     0.36300
N1823       N  0.66742639  0.20382635  0.31564751    -0.44000
N1824       N  0.72173737  0.20611978  0.04706008    -0.44000
C1825       C  0.66132345  0.13112431  0.44005292    -0.00400
C1826       C  0.67549335  0.15839895  0.45453330    -0.12200
C1827       C  0.66234873  0.17040918  0.47876282     0.01900
C1828       C  0.63426080  0.15494801  0.48827991    -0.00500
C1829       C  0.62101603  0.12685781  0.47864605    -0.12200
C1830       C  0.63426429  0.11495729  0.45464117     0.01800
H1831       H  0.69630577  0.17097284  0.44307045     0.14700
H1832       H  0.59964894  0.11450307  0.48649495     0.14700
C1833       C  0.61906532  0.08660790  0.44165913     0.36400
C1834       C  0.67766667  0.19919537  0.48849379     0.36300
N1835       N  0.60686402  0.06384974  0.43148703    -0.44000
N1836       N  0.69004748  0.22226017  0.49626043    -0.44000
C1837       C  0.59558281  0.28359301  0.56337048    -0.00400
C1838       C  0.59917258  0.30665086  0.53768195    -0.12200
C1839       C  0.60037495  0.32898683  0.56152820     0.01900
C1840       C  0.59777040  0.32856608  0.61263124    -0.00500
C1841       C  0.59353723  0.30514069  0.63812310    -0.12200
C1842       C  0.59241880  0.28286728  0.61422449     0.01800
H1843       H  0.60171047  0.30758688  0.49858233     0.14700
H1844       H  0.59110980  0.30406191  0.67723446     0.14700
C1845       C  0.58745666  0.25947186  0.64299740     0.36400
C1846       C  0.60447813  0.35189687  0.53217404     0.36300
N1847       N  0.58348310  0.24083316  0.66634745    -0.44000
N1848       N  0.60760266  0.37014800  0.50851772    -0.44000
C1849       C  0.97975606  0.31148548  0.87476659    -0.00400
C1850       C  0.97220348  0.30042285  0.82784788    -0.12200
C1851       C  0.49101023  0.31019452  0.78991187     0.01900
C1852       C  0.51734910  0.33124306  0.79878168    -0.00500
C1853       C  0.52542963  0.33999454  0.84660092    -0.12200
C1854       C  0.00681176  0.33049538  0.88415925     0.01800
H1855       H  0.95122551  0.28611897  0.82029467     0.14700
H1856       H  0.54569405  0.35592029  0.85374131     0.14700
C1857       C  0.01520051  0.34307578  0.93120335     0.36400
C1858       C  0.48220645  0.30031193  0.74138156     0.36300
N1859       N  0.02160836  0.35336323  0.96877022    -0.44000
N1860       N  0.47523042  0.29232868  0.70246356    -0.44000
C1861       C  0.62741848  0.49129265  0.69655969    -0.00400
C1862       C  0.61264061  0.50408649  0.71035895    -0.12200
C1863       C  0.62495450  0.02895938  0.73500880     0.01900
C1864       C  0.65280215  0.04222879  0.74480576    -0.00500
C1865       C  0.66821735  0.03111153  0.72665544    -0.12200
C1866       C  0.65593568  0.00585704  0.70297904     0.01800
H1867       H  0.59096535  0.49369866  0.70524029     0.14700
H1868       H  0.68958374  0.04096558  0.73493679     0.14700
C1869       C  0.67260783  0.49404540  0.69102174     0.36400
C1870       C  0.60817399  0.03948418  0.75302691     0.36300
N1871       N  0.68600514  0.48461019  0.68160378    -0.44000
N1872       N  0.59455850  0.04775419  0.76738128    -0.44000
C1873       C  0.58979147  0.41204996  0.87178422    -0.00400
C1874       C  0.60224485  0.39966457  0.89672638    -0.12200
C1875       C  0.60176979  0.39804099  0.94659764     0.01900
C1876       C  0.59000293  0.41065729  0.97400321    -0.00500
C1877       C  0.57798092  0.42376253  0.94953621    -0.12200
C1878       C  0.57768663  0.42448376  0.89855012     0.01800
H1879       H  0.61205919  0.39033360  0.87695451     0.14700
H1880       H  0.56955018  0.43415278  0.97019230     0.14700
C1881       C  0.56501227  0.43800722  0.87495476     0.36400
C1882       C  0.61407799  0.38342964  0.96797221     0.36300
N1883       N  0.55498530  0.44902774  0.85611210    -0.44000
N1884       N  0.62424248  0.37194602  0.98451412    -0.44000
C1885       C  0.91339618  0.24039928  0.57198259    -0.00400
C1886       C  0.91783817  0.23792804  0.62163491    -0.12200
C1887       C  0.91804364  0.21480684  0.63972894     0.01900
C1888       C  0.91290622  0.19328344  0.60812779    -0.00500
C1889       C  0.91147576  0.19708889  0.55797882    -0.12200
C1890       C  0.91221966  0.22053882  0.53960882     0.01800
H1891       H  0.91955168  0.25337256  0.64686548     0.14700
H1892       H  0.90803091  0.18084155  0.53319190     0.14700
C1893       C  0.90939079  0.22237202  0.48789609     0.36400
C1894       C  0.92129744  0.21271741  0.69117696     0.36300
N1895       N  0.90733853  0.22381039  0.44638169    -0.44000
N1896       N  0.92413129  0.21110724  0.73237470    -0.44000
C1897       C  0.82408717  0.23015102  0.45078261    -0.00400
C1898       C  0.82515516  0.23127113  0.39982105    -0.12200
C1899       C  0.80553389  0.21040352  0.37139125     0.01900
C1900       C  0.78349061  0.18756434  0.39371863    -0.00500
C1901       C  0.78232051  0.18648832  0.44471131    -0.12200
C1902       C  0.80225289  0.20714357  0.47317361     0.01800
H1903       H  0.84167965  0.24849026  0.38167476     0.14700
H1904       H  0.76580700  0.16922911  0.46279612     0.14700
C1905       C  0.79978755  0.20348614  0.52518763     0.36400
C1906       C  0.80928346  0.21306131  0.31940839     0.36300
N1907       N  0.79778366  0.20037486  0.56682152    -0.44000
N1908       N  0.81244557  0.21518157  0.27779589    -0.44000
C1909       C  0.53337417  0.38979796  0.57634331    -0.00400
C1910       C  0.52052236  0.40517276  0.57000607    -0.12200
C1911       C  0.99591168  0.39462796  0.54527587     0.01900
C1912       C  0.98324506  0.36758436  0.52727453    -0.00500
C1913       C  0.99766727  0.35336592  0.52957948    -0.12200
C1914       C  0.52243911  0.36415573  0.55397793     0.01800
H1915       H  0.52890796  0.42493291  0.58714697     0.14700
H1916       H  0.98865136  0.33279025  0.51582002     0.14700
C1917       C  0.53446101  0.34714865  0.56023792     0.36400
C1918       C  0.98359758  0.41157138  0.54240473     0.36300
N1919       N  0.54359567  0.33305410  0.56512889    -0.44000
N1920       N  0.97397710  0.42538381  0.54067498    -0.44000
C1921       C  0.90755252  0.33304853  0.70234865    -0.00400
C1922       C  0.88705975  0.33236683  0.73168036    -0.12200
C1923       C  0.88885937  0.33200494  0.78209204     0.01900
C1924       C  0.91047901  0.33048992  0.80292290    -0.00500
C1925       C  0.93216409  0.33377417  0.77386561    -0.12200
C1926       C  0.93121604  0.33601974  0.72352221     0.01800
H1927       H  0.86929926  0.33123139  0.71510605     0.14700
H1928       H  0.94946602  0.33392948  0.79044926     0.14700
C1929       C  0.95411812  0.34057128  0.69422219     0.36400
C1930       C  0.86824802  0.33251188  0.81183135     0.36300
N1931       N  0.97256450  0.34487672  0.67040482    -0.44000
N1932       N  0.85228278  0.33356197  0.83631732    -0.44000
C1933       C  0.88186590  0.35687719  0.40614715    -0.00400
C1934       C  0.85680062  0.34082634  0.38384159    -0.12200
C1935       C  0.84273920  0.35281391  0.36276679     0.01900
C1936       C  0.85401493  0.38140656  0.36370376    -0.00500
C1937       C  0.88051231  0.39734521  0.38087829    -0.12200
C1938       C  0.89432937  0.38537427  0.40221499     0.01800
H1939       H  0.84694043  0.31889298  0.38740870     0.14700
H1940       H  0.88971633  0.41931299  0.38104009     0.14700
C1941       C  0.92031217  0.40277177  0.42392487     0.36400
C1942       C  0.81565503  0.33516186  0.34580452     0.36300
N1943       N  0.94110084  0.41672915  0.44135403    -0.44000
N1944       N  0.79392469  0.32091663  0.33234667    -0.44000
C1945       C  0.68025555  0.41986792  0.73762886    -0.00400
C1946       C  0.68532839  0.42225180  0.78797742    -0.12200
C1947       C  0.70862734  0.42338511  0.80721211     0.01900
C1948       C  0.72761669  0.42238338  0.77569319    -0.00500
C1949       C  0.72422758  0.42369985  0.72525868    -0.12200
C1950       C  0.70084665  0.42232309  0.70601293     0.01800
H1951       H  0.66998916  0.42116756  0.81284919     0.14700
H1952       H  0.73896946  0.42352568  0.70050522     0.14700
C1953       C  0.69745415  0.42052763  0.65400871     0.36400
C1954       C  0.71097513  0.42261406  0.85922884     0.36300
N1955       N  0.69482636  0.41902438  0.61230861    -0.44000
N1956       N  0.71266092  0.42195947  0.90098559    -0.44000
C1957       C  0.67978815  0.28940474  0.95281910    -0.00400
C1958       C  0.70215956  0.31043865  0.97676013    -0.12200
C1959       C  0.72333960  0.33180200  0.95115671     0.01900
C1960       C  0.72271707  0.33261084  0.89984553    -0.00500
C1961       C  0.70058304  0.31137426  0.87584323    -0.12200
C1962       C  0.67935097  0.29006669  0.90141256     0.01800
H1963       H  0.70313575  0.31046022  0.01603921     0.14700
H1964       H  0.69954837  0.31149611  0.83656976     0.14700
C1965       C  0.65765533  0.26924674  0.87330115     0.36400
C1966       C  0.74542394  0.35233597  0.97898039     0.36300
N1967       N  0.64037959  0.25264052  0.85048255    -0.44000
N1968       N  0.76302587  0.36874872  0.00150406    -0.44000
C1969       C  0.82252343  0.31911545  0.62207996    -0.00400
C1970       C  0.81503983  0.30501996  0.66665096    -0.12200
C1971       C  0.80764089  0.31544621  0.70639717     0.01900
C1972       C  0.80723160  0.33992641  0.70096669    -0.00500
C1973       C  0.81154490  0.35203168  0.65488148    -0.12200
C1974       C  0.81927441  0.34196417  0.61561885     0.01800
H1975       H  0.81792731  0.28764568  0.67208089     0.14700
H1976       H  0.81059453  0.37052869  0.65022818     0.14700
C1977       C  0.82611625  0.35676706  0.57023061     0.36400
C1978       C  0.80302544  0.30213843  0.75290923     0.36300
N1979       N  0.83174381  0.36859806  0.53387190    -0.44000
N1980       N  0.79931417  0.29125539  0.79003135    -0.44000
C1981       C  0.87218076  0.36491000  0.97738857    -0.00400
C1982       C  0.88767970  0.39070884  0.95569032    -0.12200
C1983       C  0.87550566  0.40377354  0.93196843     0.01900
C1984       C  0.84718944  0.39152342  0.93018469    -0.00500
C1985       C  0.83158082  0.36723075  0.95586450    -0.12200
C1986       C  0.84370582  0.35382930  0.97927418     0.01800
H1987       H  0.90946448  0.40006902  0.95427874     0.14700
H1988       H  0.80976405  0.35758852  0.95439224     0.14700
C1989       C  0.82611653  0.32797515  0.00201973     0.36400
C1990       C  0.89246070  0.42906344  0.90684212     0.36300
N1991       N  0.81190339  0.30723646  0.02013080    -0.44000
N1992       N  0.90586731  0.44927841  0.88649293    -0.44000
C1993       C  0.85762891  0.49621818  0.82246869    -0.00400
C1994       C  0.88376238  0.00628379  0.80281414    -0.12200
C1995       C  0.89717067  0.03158290  0.77962951     0.01900
C1996       C  0.88479397  0.04778529  0.77616324    -0.00500
C1997       C  0.86075894  0.03980176  0.80198985    -0.12200
C1998       C  0.84707993  0.51424676  0.82498870     0.01800
H1999       H  0.89303784  0.49355644  0.80259718     0.14700
H2000       H  0.85129662  0.05234377  0.80026340     0.14700
C2001       C  0.82156237  0.50661007  0.84806035     0.36400
C2002       C  0.92273397  0.03956972  0.75616838     0.36300
N2003       N  0.80117348  0.50066322  0.86671493    -0.44000
N2004       N  0.94311499  0.04601311  0.73703363    -0.44000
C2005       C  0.81233398  0.42443736  0.64208375    -0.00400
C2006       C  0.78947944  0.42312451  0.62080994    -0.12200
C2007       C  0.78648038  0.42203913  0.57070469     0.01900
C2008       C  0.80664253  0.42206678  0.54078753    -0.00500
C2009       C  0.83078080  0.42619335  0.56176517    -0.12200
C2010       C  0.83373845  0.42724314  0.61231960     0.01800
H2011       H  0.77321996  0.42147913  0.64365107     0.14700
H2012       H  0.84679359  0.42734781  0.53880395     0.14700
C2013       C  0.85786092  0.42901224  0.63259221     0.36400
C2014       C  0.76253048  0.42109766  0.55120719     0.36300
N2015       N  0.87725250  0.43046003  0.64865835    -0.44000
N2016       N  0.74335803  0.42042876  0.53579883    -0.44000
C2017       C  0.77211448  0.09650856  0.26600055    -0.00400
C2018       C  0.78918661  0.09412224  0.29973784    -0.12200
C2019       C  0.81239442  0.09364747  0.28435455     0.01900
C2020       C  0.81900933  0.09589792  0.23428592    -0.00500
C2021       C  0.80001505  0.09433949  0.20051233    -0.12200
C2022       C  0.77664052  0.09449804  0.21583945     0.01800
H2023       H  0.78559933  0.09471416  0.33825863     0.14700
H2024       H  0.80442257  0.09523362  0.16203566     0.14700
C2025       C  0.75841966  0.09400568  0.17901400     0.36400
C2026       C  0.82962797  0.09193052  0.32089699     0.36300
N2027       N  0.74391791  0.09371050  0.14943081    -0.44000
N2028       N  0.84327273  0.09042734  0.35032964    -0.44000
C2029       C  0.90073854  0.18659240  0.10912351    -0.00400
C2030       C  0.88698436  0.18059285  0.06459967    -0.12200
C2031       C  0.88501603  0.20066373  0.03767228     0.01900
C2032       C  0.89713394  0.22774861  0.05471288    -0.00500
C2033       C  0.91088849  0.23380292  0.09916109    -0.12200
C2034       C  0.91297676  0.21380236  0.12606951     0.01800
H2035       H  0.87701825  0.15989708  0.05122662     0.14700
H2036       H  0.92040139  0.25442861  0.11282435     0.14700
C2037       C  0.92839022  0.22218234  0.17041014     0.36400
C2038       C  0.86920246  0.19249015  0.99386462     0.36300
N2039       N  0.94077742  0.22897435  0.20589052    -0.44000
N2040       N  0.85647568  0.18607565  0.95879086    -0.44000
C2041       C  0.96839032  0.12300209  0.08088635    -0.00400
C2042       C  0.97507642  0.14513184  0.04964315    -0.12200
C2043       C  0.00076052  0.15926142  0.02725385     0.01900
C2044       C  0.52043513  0.15132165  0.03608020    -0.00500
C2045       C  0.51251605  0.12758413  0.06349190    -0.12200
C2046       C  0.98712315  0.11361730  0.08564760     0.01800
H2047       H  0.96095036  0.15255651  0.04524229     0.14700
H2048       H  0.52682264  0.12060803  0.07026961     0.14700
C2049       C  0.98140734  0.09029280  0.11517665     0.36400
C2050       C  0.00635501  0.18196053  0.99606426     0.36300
N2051       N  0.47726550  0.07179205  0.13897210    -0.44000
N2052       N  0.01068360  0.20001080  0.97074568    -0.44000
C2053       C  0.98693974  0.17909683  0.28879909    -0.00400
C2054       C  0.48420195  0.19493575  0.32577925    -0.12200
C2055       C  0.49941416  0.20083764  0.36881262     0.01900
C2056       C  0.51645806  0.18971902  0.37575207    -0.00500
C2057       C  0.02013085  0.17550945  0.33748817    -0.12200
C2058       C  0.00692723  0.17153767  0.29366730     0.01800
H2059       H  0.46871982  0.20066611  0.32286647     0.14700
H2060       H  0.03350830  0.16721914  0.34170046     0.14700
C2061       C  0.01247260  0.15722737  0.25581871     0.36400
C2062       C  0.49565488  0.21629271  0.40649270     0.36300
N2063       N  0.01681030  0.14565821  0.22571872    -0.44000
N2064       N  0.49271364  0.22874307  0.43674966    -0.44000
C2065       C  0.86761340  0.01982940  0.18854925    -0.00400
C2066       C  0.83963990  0.00746182  0.19674358    -0.12200
C2067       C  0.82539374  0.48210614  0.22055604     0.01900
C2068       C  0.83916334  0.46845329  0.23606358    -0.00500
C2069       C  0.86653155  0.97943261  0.22321547    -0.12200
C2070       C  0.88060168  0.00458723  0.19933195     0.01800
H2071       H  0.82927045  0.01874113  0.18906041     0.14700
H2072       H  0.87729952  0.96908218  0.23472201     0.14700
C2073       C  0.90880838  0.01484873  0.18897075     0.36400
C2074       C  0.79769571  0.47241978  0.23439903     0.36300
N2075       N  0.93139179  0.02266737  0.18104462    -0.44000
N2076       N  0.77558896  0.46489162  0.24589960    -0.44000
C2077       C  0.90790682  0.10063970  0.47377495    -0.00400
C2078       C  0.89644071  0.07681530  0.44592054    -0.12200
C2079       C  0.89756389  0.07815511  0.39526359     0.01900
C2080       C  0.91058315  0.10378747  0.37239255    -0.00500
C2081       C  0.92417719  0.12742701  0.40067263    -0.12200
C2082       C  0.92288202  0.12602736  0.45106526     0.01800
H2083       H  0.88510483  0.05726896  0.46362223     0.14700
H2084       H  0.93533238  0.14717969  0.38330370     0.14700
C2085       C  0.93695676  0.15079389  0.47876789     0.36400
C2086       C  0.88353354  0.05326030  0.36792513     0.36300
N2087       N  0.94843124  0.17056929  0.50104778    -0.44000
N2088       N  0.87227210  0.03335082  0.34591681    -0.44000
Fe2089     Fe  0.93038080  0.60156450  0.22411861     1.65800
Fe2090     Fe  0.88707023  0.60347263  0.14166521     1.73200
Fe2091     Fe  0.90654056  0.64497619  0.24138129     1.54400
O2092       O  0.90926955  0.62811106  0.30557569    -0.81900
O2093       O  0.89560829  0.64191742  0.11741882    -0.80200
O2094       O  0.91181405  0.59085544  0.29077355    -0.84400
O2095       O  0.95828177  0.63772004  0.25252253    -0.79200
O2096       O  0.86555697  0.62174971  0.24538302    -0.81000
O2097       O  0.92210020  0.60970433  0.10295260    -0.83800
C2098       C  0.96358907  0.66206674  0.25765181     0.97000
C2099       C  0.91005851  0.60723062  0.31983280     1.04400
O2100       O  0.90799066  0.61678937  0.20182890    -1.12700
O2101       O  0.87358759  0.56236800  0.15750666    -0.75200
O2102       O  0.90568281  0.56242824  0.20222988    -0.78700
O2103       O  0.94776040  0.67025024  0.24308174    -0.79400
C2104       C  0.88335077  0.54983886  0.18079005     0.95900
O2105       O  0.95105668  0.61183417  0.15991745    -0.77300
O2106       O  0.85166802  0.59747284  0.17685247    -0.82500
C2107       C  0.90037240  0.66384573  0.13837151     0.98500
C2108       C  0.84699597  0.60498618  0.21787715     1.04400
O2109       O  0.90404545  0.66685112  0.18370658    -0.78200
C2110       C  0.94545862  0.61389221  0.11612115     1.02700
Fe2111     Fe  0.83451687  0.91370128  0.78664111     1.65800
Fe2112     Fe  0.78966870  0.91543305  0.86572514     1.73200
Fe2113     Fe  0.76797015  0.87428370  0.76683625     1.54400
O2114       O  0.78822658  0.89460001  0.70463917    -0.81900
O2115       O  0.76049099  0.87751626  0.89045456    -0.80200
O2116       O  0.82909777  0.92939206  0.72289325    -0.84400
O2117       O  0.82595160  0.87922260  0.74787900    -0.79200
O2118       O  0.74925466  0.89691798  0.76491993    -0.81000
O2119       O  0.81843352  0.90914028  0.90428124    -0.83800
C2120       C  0.80582559  0.85583513  0.74176372     0.97000
C2121       C  0.80997788  0.91612731  0.69316238     1.04400
O2122       O  0.79710903  0.90103154  0.80676605    -1.12700
O2123       O  0.81698828  0.95543901  0.84657442    -0.75200
O2124       O  0.85103249  0.95149639  0.81860897    -0.78700
O2125       O  0.78367514  0.84851972  0.76304177    -0.79400
C2126       C  0.84098759  0.96612341  0.83088532     0.95900
O2127       O  0.84039352  0.89790189  0.84903039    -0.77300
O2128       O  0.76004203  0.92191716  0.83218117    -0.82500
C2129       C  0.74406148  0.85524862  0.87023091     0.98500
C2130       C  0.74714875  0.91370107  0.79225345     1.04400
O2131       O  0.74459522  0.85168105  0.82484369    -0.78200
C2132       C  0.83438812  0.90006847  0.89267810     1.02700
Fe2133     Fe  0.90097901  0.84635332  0.55278851     1.65800
Fe2134     Fe  0.90429157  0.80032180  0.47920616     1.73200
Fe2135     Fe  0.86496507  0.77969118  0.58043338     1.54400
O2136       O  0.88155762  0.80303946  0.64160944    -0.81900
O2137       O  0.86650555  0.77119698  0.45573710    -0.80200
O2138       O  0.91549826  0.84354653  0.61916674    -0.84400
O2139       O  0.86463344  0.83652960  0.58490525    -0.79200
O2140       O  0.89107416  0.76489596  0.58793804    -0.81000
O2141       O  0.89944835  0.82879688  0.43675461    -0.83800
C2142       C  0.84176230  0.81560673  0.59147902     0.97000
C2143       C  0.90155835  0.82617754  0.65131929     1.04400
O2144       O  0.88984071  0.80859864  0.53706536    -1.12700
O2145       O  0.94354972  0.82790236  0.49937356    -0.75200
O2146       O  0.93949995  0.86263799  0.52493653    -0.78700
O2147       O  0.83671411  0.79210037  0.57868937    -0.79400
C2148       C  0.95393422  0.85203357  0.51526324     0.95900
O2149       O  0.88681174  0.85106777  0.48818429    -0.77300
O2150       O  0.90972721  0.77047395  0.51462318    -0.82500
C2151       C  0.84637664  0.75271195  0.47867391     0.98500
C2152       C  0.90483348  0.76019871  0.55724214     1.04400
O2153       O  0.84471119  0.75282725  0.52462079    -0.78200
C2154       C  0.89005458  0.84472852  0.44564770     1.02700
Fe2155     Fe  0.56465171  0.90894126  0.72294730     1.65800
Fe2156     Fe  0.61199673  0.91097837  0.64468555     1.73200
Fe2157     Fe  0.59296764  0.86993370  0.74309211     1.54400
O2158       O  0.58842010  0.88683004  0.80473328    -0.81900
O2159       O  0.60243456  0.87295749  0.61937824    -0.80200
O2160       O  0.58280899  0.92229672  0.78968202    -0.84400
O2161       O  0.53799132  0.87231542  0.75585336    -0.79200
O2162       O  0.63359375  0.89472376  0.75009498    -0.81000
O2163       O  0.57862199  0.90667167  0.60477660    -0.83800
C2164       C  0.53573437  0.84896446  0.76034414     0.97000
C2165       C  0.58713316  0.90746648  0.81875812     1.04400
O2166       O  0.58993973  0.89659150  0.70318329    -1.12700
O2167       O  0.62459685  0.95047532  0.66542078    -0.75200
O2168       O  0.58775371  0.94814460  0.69651191    -0.78700
O2169       O  0.55228268  0.84304723  0.74107710    -0.79400
C2170       C  0.61240381  0.96175650  0.68435078     0.95900
O2171       O  0.54498609  0.89574568  0.65824655    -0.77300
O2172       O  0.64716691  0.91599710  0.67885834    -0.82500
C2173       C  0.59949888  0.85181082  0.64078349     0.98500
C2174       C  0.65214529  0.91005974  0.72094424     1.04400
O2175       O  0.59795622  0.84951187  0.68648960    -0.78200
C2176       C  0.55378790  0.89800380  0.61512477     1.02700
Fe2177     Fe  0.66946457  0.61263544  0.29167445     1.65800
Fe2178     Fe  0.71440660  0.60662778  0.36242132     1.73200
Fe2179     Fe  0.73529998  0.64715449  0.26298496     1.54400
O2180       O  0.71161375  0.63082423  0.20173731    -0.81900
O2181       O  0.74329306  0.64430274  0.38777300    -0.80200
O2182       O  0.67126291  0.59716412  0.22539709    -0.84400
O2183       O  0.68025450  0.64949348  0.25831882    -0.79200
O2184       O  0.74878204  0.62033019  0.25350550    -0.81000
O2185       O  0.68600591  0.61093494  0.40576298    -0.83800
C2186       C  0.70174595  0.67206372  0.25229548     0.97000
C2187       C  0.68864289  0.61036160  0.19277596     1.04400
O2188       O  0.70661767  0.62240992  0.30609146    -1.12700
O2189       O  0.68689615  0.56791958  0.33888398    -0.75200
O2190       O  0.65243573  0.57367330  0.32049447    -0.78700
O2191       O  0.72433332  0.67627692  0.26729269    -0.79400
C2192       C  0.66272112  0.55841814  0.32481666     0.95900
O2193       O  0.66670294  0.62803549  0.35685376    -0.77300
O2194       O  0.74398780  0.60125464  0.32612827    -0.82500
C2195       C  0.76168344  0.66476824  0.36522997     0.98500
C2196       C  0.75330033  0.60589563  0.28283550     1.04400
O2197       O  0.76199171  0.66650056  0.31922807    -0.78200
C2198       C  0.67214933  0.62282360  0.39876035     1.02700
Fe2199     Fe  0.66428063  0.57231267  0.89246938     1.65800
Fe2200     Fe  0.71001409  0.62024675  0.81628111     1.73200
Fe2201     Fe  0.73100955  0.60050407  0.91593951     1.54400
O2202       O  0.70905880  0.59395673  0.97941032    -0.81900
O2203       O  0.73826133  0.61034455  0.79107029    -0.80200
O2204       O  0.66892464  0.58895791  0.95990250    -0.84400
O2205       O  0.67390089  0.54424105  0.92081721    -0.79200
O2206       O  0.74592668  0.64134924  0.92438029    -0.81000
O2207       O  0.68150486  0.58736862  0.77449088    -0.83800
C2208       C  0.69479772  0.54188510  0.92614260     0.97000
C2209       C  0.68660921  0.59205099  0.99074421     1.04400
O2210       O  0.70182977  0.59761230  0.87451472    -1.12700
O2211       O  0.68334011  0.63348734  0.83628153    -0.75200
O2212       O  0.64912212  0.59726705  0.87005408    -0.78700
O2213       O  0.71800948  0.55984283  0.91217251    -0.79400
C2214       C  0.66007150  0.62176420  0.85562033     0.95900
O2215       O  0.65710800  0.55356814  0.82667884    -0.77300
O2216       O  0.73977272  0.65496084  0.85192360    -0.82500
C2217       C  0.75692172  0.60866037  0.81298672     0.98500
C2218       C  0.75002355  0.66005060  0.89442304     1.04400
O2219       O  0.75741428  0.60702721  0.85889458    -0.78200
C2220       C  0.66440801  0.56254404  0.78394151     1.02700
Fe2221     Fe  0.56718217  0.66879403  0.45887684     1.65800
Fe2222     Fe  0.61328045  0.71750230  0.53373247     1.73200
Fe2223     Fe  0.58943883  0.73536048  0.43481163     1.54400
O2224       O  0.58774002  0.71508023  0.37268726    -0.81900
O2225       O  0.60369924  0.74636583  0.55674936    -0.80200
O2226       O  0.58368183  0.67474733  0.38987209    -0.84400
O2227       O  0.53687732  0.67401879  0.42996313    -0.79200
O2228       O  0.63058561  0.75548229  0.42826083    -0.81000
O2229       O  0.58083374  0.68952897  0.57708281    -0.83800
C2230       C  0.53330005  0.69373697  0.41888059     0.97000
C2231       C  0.58680864  0.69317100  0.35980882     1.04400
O2232       O  0.59000409  0.70733781  0.47607151    -1.12700
O2233       O  0.62752230  0.69107600  0.51772833    -0.75200
O2234       O  0.59384109  0.65640333  0.48067336    -0.78700
O2235       O  0.54804061  0.71734039  0.43567143    -0.79400
C2236       C  0.61753404  0.66812109  0.49735959     0.95900
O2237       O  0.54897535  0.66080311  0.52582113    -0.77300
O2238       O  0.64695087  0.74657193  0.49509085    -0.82500
C2239       C  0.59647418  0.76163151  0.53570261     0.98500
C2240       C  0.65018321  0.75821559  0.45393617     1.04400
O2241       O  0.59095141  0.75962178  0.49099583    -0.78200
C2242       C  0.55695297  0.67028834  0.56809946     1.02700
Fe2243     Fe  0.82917753  0.94208075  0.38647971     1.65800
Fe2244     Fe  0.78518428  0.89121284  0.31323081     1.73200
Fe2245     Fe  0.76267971  0.90968047  0.41220340     1.54400
O2246       O  0.77994447  0.90301306  0.47150970    -0.81900
O2247       O  0.75063968  0.89341727  0.29594734    -0.80200
O2248       O  0.82287760  0.93499317  0.46074813    -0.84400
O2249       O  0.81751800  0.97093228  0.39034516    -0.79200
O2250       O  0.74049162  0.86848272  0.40258754    -0.81000
O2251       O  0.80643289  0.92524543  0.26854468    -0.83800
C2252       C  0.80259013  0.97055707  0.42464555     0.97000
C2253       C  0.80317946  0.91938692  0.48792001     1.04400
O2254       O  0.79246487  0.91404397  0.37074695    -1.12700
O2255       O  0.81876452  0.88599496  0.32512262    -0.75200
O2256       O  0.84294067  0.91494686  0.38376753    -0.78700
O2257       O  0.78013636  0.94970189  0.43347134    -0.79400
C2258       C  0.83771627  0.89495271  0.35637971     0.95900
O2259       O  0.84038515  0.95387546  0.31534872    -0.77300
O2260       O  0.76246439  0.85533100  0.35256678    -0.82500
C2261       C  0.73896381  0.90585247  0.31325897     0.98500
C2262       C  0.74432572  0.85020163  0.38430182     1.04400
O2263       O  0.74428705  0.91666177  0.35499393    -0.78200
C2264       C  0.82812982  0.94759656  0.27507109     1.02700
Fe2265     Fe  0.60346005  0.67459263  0.05850509     1.65800
Fe2266     Fe  0.59847142  0.72103162  0.98872228     1.73200
Fe2267     Fe  0.64061927  0.74085983  0.08503310     1.54400
O2268       O  0.62183578  0.71722992  0.14630351    -0.81900
O2269       O  0.63560682  0.75068229  0.96261884    -0.80200
O2270       O  0.58774346  0.67658668  0.12368851    -0.84400
O2271       O  0.63868612  0.68372029  0.09583564    -0.79200
O2272       O  0.61722817  0.75799214  0.09473031    -0.81000
O2273       O  0.60365597  0.69279188  0.94476793    -0.83800
C2274       C  0.66147994  0.70488280  0.10085448     0.97000
C2275       C  0.60099756  0.69430852  0.15560561     1.04400
O2276       O  0.61419034  0.71249323  0.04392617    -1.12700
O2277       O  0.55959980  0.69308635  0.01127418    -0.75200
O2278       O  0.56520442  0.65815807  0.02766937    -0.78700
O2279       O  0.66705750  0.72664125  0.07948742    -0.79400
C2280       C  0.54989503  0.66838847  0.02330501     0.95900
O2281       O  0.61966638  0.67237320  0.99408192    -0.77300
O2282       O  0.59291325  0.75020232  0.02774254    -0.82500
C2283       C  0.65756819  0.76764934  0.98277187     0.98500
C2284       C  0.60066126  0.76126976  0.06949876     1.04400
O2285       O  0.66128986  0.76697999  0.02812182    -0.78200
C2286       C  0.61522787  0.67848763  0.95205785     1.02700
Fe2287     Fe  0.59533399  0.94108397  0.11812175     1.65800
Fe2288     Fe  0.59414113  0.89654574  0.20232542     1.73200
Fe2289     Fe  0.63380942  0.91208188  0.10318485     1.54400
O2290       O  0.61660498  0.91485159  0.04060300    -0.81900
O2291       O  0.63206302  0.90692130  0.22814855    -0.80200
O2292       O  0.58064069  0.91941379  0.05452383    -0.84400
O2293       O  0.63089941  0.96591450  0.08105309    -0.79200
O2294       O  0.60898459  0.87107040  0.10014473    -0.81000
O2295       O  0.59888586  0.93187661  0.23720533    -0.83800
C2296       C  0.65416789  0.96827897  0.07801015     0.97000
C2297       C  0.59549685  0.91471498  0.02619087     1.04400
O2298       O  0.60783194  0.91648672  0.14169123    -1.12700
O2299       O  0.55479756  0.88280014  0.18045951    -0.75200
O2300       O  0.55701173  0.91968890  0.14856946    -0.78700
O2301       O  0.66041387  0.95305840  0.10160409    -0.79400
C2302       C  0.54357047  0.89489491  0.16084066     0.95900
O2303       O  0.61054452  0.96387414  0.17946083    -0.77300
O2304       O  0.58948192  0.86015471  0.17329082    -0.82500
C2305       C  0.65244066  0.90825415  0.20680656     0.98500
C2306       C  0.59476706  0.85366602  0.13195498     1.04400
O2307       O  0.65428293  0.90852321  0.16103121    -0.78200
C2308       C  0.60898946  0.95670197  0.22358543     1.02700
Fe2309     Fe  0.90025464  0.57360375  0.62515390     1.65800
Fe2310     Fe  0.90453685  0.62448534  0.69831617     1.73200
Fe2311     Fe  0.86473628  0.60536556  0.59806031     1.54400
O2312       O  0.88924800  0.61164864  0.53923360    -0.81900
O2313       O  0.86700848  0.62074103  0.71568108    -0.80200
O2314       O  0.90457248  0.58262247  0.55206983    -0.84400
O2315       O  0.86117082  0.54332756  0.61408858    -0.79200
O2316       O  0.88308090  0.64659935  0.60548503    -0.81000
O2317       O  0.89414551  0.59102771  0.74379035    -0.83800
C2318       C  0.84439549  0.54406235  0.58497468     0.97000
C2319       C  0.90073942  0.59854435  0.52505437     1.04400
O2320       O  0.88989440  0.60110793  0.64067626    -1.12700
O2321       O  0.94399550  0.63166213  0.68664116    -0.75200
O2322       O  0.94057422  0.60067179  0.63321626    -0.78700
O2323       O  0.84256040  0.56517798  0.57852076    -0.79400
C2324       C  0.95463289  0.62176058  0.65831362     0.95900
O2325       O  0.89657863  0.56073562  0.69555298    -0.77300
O2326       O  0.91609728  0.66027738  0.65927182    -0.82500
C2327       C  0.84336545  0.60940090  0.69728442     0.98500
C2328       C  0.90386659  0.66518279  0.62568606     1.04400
O2329       O  0.83874251  0.59945361  0.65476559    -0.78200
C2330       C  0.89281640  0.56817000  0.73676538     1.02700
Fe2331     Fe  0.93274436  0.84247444  0.95066632     1.65800
Fe2332     Fe  0.88561377  0.79787202  0.02783517     1.73200
Fe2333     Fe  0.90039531  0.77566025  0.92437561     1.54400
O2334       O  0.90615355  0.79917243  0.86277786    -0.81900
O2335       O  0.89611593  0.76938990  0.05070809    -0.80200
O2336       O  0.91404820  0.84020248  0.88634490    -0.84400
O2337       O  0.95760100  0.83110923  0.91495279    -0.79200
O2338       O  0.86013912  0.76286191  0.92079402    -0.81000
O2339       O  0.91944426  0.82734412  0.06697766    -0.83800
C2340       C  0.95847671  0.80942863  0.90732209     0.97000
C2341       C  0.90978453  0.82280898  0.85378493     1.04400
O2342       O  0.90642407  0.80514435  0.96794075    -1.12700
O2343       O  0.87274640  0.82492663  0.00692323    -0.75200
O2344       O  0.91116989  0.85950672  0.98146664    -0.78700
O2345       O  0.94026730  0.78635340  0.92184176    -0.79400
C2346       C  0.88608929  0.84896636  0.99034910     0.95900
O2347       O  0.95328330  0.84649381  0.01333348    -0.77300
O2348       O  0.84976117  0.76705141  0.99691100    -0.82500
C2349       C  0.89587277  0.74987638  0.02734318     0.98500
C2350       C  0.84293677  0.75736019  0.95421816     1.04400
O2351       O  0.89474271  0.74871132  0.98112182    -0.78200
C2352       C  0.94458728  0.84128562  0.05655487     1.02700
C2353       C  0.51458383  0.87893363  0.14683922    -0.00400
C2354       C  0.50505401  0.85239773  0.12950423    -0.12200
C2355       C  0.98098272  0.83896725  0.10325170     0.01900
C2356       C  0.96529654  0.85155719  0.09512236    -0.00500
C2357       C  0.97350112  0.87709126  0.11587798    -0.12200
C2358       C  0.49791377  0.89077954  0.14172470     0.01800
H2359       H  0.51759536  0.84302360  0.13266892     0.14700
H2360       H  0.96169163  0.88701920  0.10942606     0.14700
C2361       C  0.50581228  0.91730482  0.16126010     0.36400
C2362       C  0.97403221  0.81319614  0.08122390     0.36300
N2363       N  0.51215879  0.93853091  0.17713590    -0.44000
N2364       N  0.96871121  0.79269730  0.06325661    -0.44000
C2365       C  0.59180935  0.78013495  0.08980557    -0.00400
C2366       C  0.58092849  0.79192704  0.05875788    -0.12200
C2367       C  0.57848457  0.81429252  0.07390708     0.01900
C2368       C  0.58682140  0.82514409  0.12088243    -0.00500
C2369       C  0.59428746  0.81134719  0.15379156    -0.12200
C2370       C  0.59712898  0.78929375  0.13894051     0.01800
H2371       H  0.57598503  0.78491560  0.02165972     0.14700
H2372       H  0.60055370  0.81948115  0.19002964     0.14700
C2373       C  0.60762010  0.77828380  0.17474820     0.36400
C2374       C  0.56811415  0.82637212  0.04023387     0.36300
N2375       N  0.61633012  0.77002669  0.20386791    -0.44000
N2376       N  0.55958413  0.83594392  0.01342858    -0.44000
C2377       C  0.71758831  0.90723038  0.28496309    -0.00400
C2378       C  0.69778274  0.91020324  0.31038387    -0.12200
C2379       C  0.67666932  0.91104746  0.28625899     0.01900
C2380       C  0.67496015  0.90889732  0.23513968    -0.00500
C2381       C  0.69518708  0.90650587  0.20971383    -0.12200
C2382       C  0.71624323  0.90560622  0.23387906     0.01800
H2383       H  0.69851041  0.91149877  0.34965473     0.14700
H2384       H  0.69456252  0.90505338  0.17047646     0.14700
C2385       C  0.73643366  0.90376794  0.20491324     0.36400
C2386       C  0.65730858  0.91420003  0.31534502     0.36300
N2387       N  0.75257496  0.90243092  0.18139677    -0.44000
N2388       N  0.64187349  0.91673648  0.33888708    -0.44000
C2389       C  0.81359561  0.99169584  0.46245316    -0.00400
C2390       C  0.79601314  0.49731062  0.48958842    -0.12200
C2391       C  0.80475019  0.51294640  0.53201202     0.01900
C2392       C  0.83113502  0.52215069  0.54914265    -0.00500
C2393       C  0.84824371  0.51556290  0.52317918    -0.12200
C2394       C  0.84006996  0.00124952  0.47986703     0.01800
H2395       H  0.77530652  0.48919343  0.47784065     0.14700
H2396       H  0.86869258  0.02327473  0.53544735     0.14700
C2397       C  0.85937894  0.99596241  0.45515495     0.36400
C2398       C  0.78602827  0.51841176  0.55810188     0.36300
N2399       N  0.87488019  0.99176944  0.43542692    -0.44000
N2400       N  0.77063827  0.52234820  0.57881637    -0.44000
C2401       C  0.67777928  0.77694899  0.43525856    -0.00400
C2402       C  0.69783149  0.79384427  0.46798301    -0.12200
C2403       C  0.72161908  0.81639575  0.45136859     0.01900
C2404       C  0.72579701  0.82218393  0.40111994    -0.00500
C2405       C  0.70742473  0.80338595  0.36820675    -0.12200
C2406       C  0.68349502  0.78087189  0.38478952     0.01800
H2407       H  0.69406240  0.79074823  0.50669386     0.14700
H2408       H  0.71057377  0.80753358  0.32959729     0.14700
C2409       C  0.66462585  0.76287651  0.34911542     0.36400
C2410       C  0.74073881  0.83423694  0.48685922     0.36300
N2411       N  0.64951157  0.74855127  0.32045600    -0.44000
N2412       N  0.75591899  0.84824897  0.51573510    -0.44000
C2413       C  0.59234486  0.68863504  0.20598948     0.08000
C2414       C  0.60118371  0.67427287  0.23526712    -0.12200
C2415       C  0.59812745  0.67377682  0.28582028     0.01900
C2416       C  0.58767097  0.68930221  0.30705416    -0.00500
C2417       C  0.57755533  0.70228670  0.27681129    -0.12200
C2418       C  0.57885248  0.70107146  0.22667783     0.01800
H2419       H  0.61119952  0.66423617  0.21878041     0.14700
H2420       H  0.56829748  0.71330017  0.29230806     0.14700
C2421       C  0.56564966  0.71201903  0.19686527     0.36400
C2422       C  0.60673975  0.65821694  0.31483019     0.36300
N2423       N  0.55463331  0.72015363  0.17265925    -0.44000
N2424       N  0.61347248  0.64565126  0.33824515    -0.44000
C2425       C  0.53626435  0.65910936  0.60705091    -0.00400
C2426       C  0.52637649  0.67560678  0.62558644    -0.12200
C2427       C  0.50071552  0.66411645  0.64750727     0.01900
C2428       C  0.98451720  0.63553463  0.65101884    -0.00500
C2429       C  0.99603289  0.61943891  0.63781849    -0.12200
C2430       C  0.52151512  0.63092205  0.61588941     0.01800
H2431       H  0.53751331  0.69730570  0.61865608     0.14700
H2432       H  0.98423410  0.59751511  0.64141256     0.14700
C2433       C  0.53166408  0.61330782  0.60028969     0.36400
C2434       C  0.49063019  0.68205970  0.66115321     0.36300
N2435       N  0.04011959  0.59937637  0.58831707    -0.44000
N2436       N  0.48271200  0.69659563  0.67204495    -0.44000
C2437       C  0.76886359  0.68856880  0.91002601    -0.00400
C2438       C  0.77440543  0.69379591  0.95995584    -0.12200
C2439       C  0.79680202  0.71780527  0.97626229     0.01900
C2440       C  0.81445038  0.73711936  0.94221996    -0.00500
C2441       C  0.80671746  0.73361014  0.89306874    -0.12200
C2442       C  0.78418785  0.70974704  0.87676895     0.01800
H2443       H  0.76213115  0.67834065  0.98640515     0.14700
H2444       H  0.81946486  0.74878246  0.86657684     0.14700
C2445       C  0.77877387  0.70694147  0.82534558     0.36400
C2446       C  0.80223750  0.72090324  0.02767625     0.36300
N2447       N  0.77443479  0.70479929  0.78412092    -0.44000
N2448       N  0.80651422  0.72345423  0.06891241    -0.44000
C2449       C  0.77905312  0.60872229  0.78399150    -0.00400
C2450       C  0.77331544  0.59642636  0.73817033    -0.12200
C2451       C  0.79355987  0.59615794  0.70945750     0.01900
C2452       C  0.82056224  0.60831057  0.72654334    -0.00500
C2453       C  0.82617128  0.62080321  0.77245378    -0.12200
C2454       C  0.80593564  0.62129374  0.80076142     0.01800
H2455       H  0.75281090  0.58689408  0.72464050     0.14700
H2456       H  0.84662549  0.63079555  0.78619947     0.14700
C2457       C  0.81366341  0.63624191  0.84569698     0.36400
C2458       C  0.78571599  0.58369223  0.66231185     0.36300
N2459       N  0.81967566  0.64833116  0.88160210    -0.44000
N2460       N  0.77925123  0.57390624  0.62438257    -0.44000
C2461       C  0.62413010  0.66769069  0.91136148    -0.00400
C2462       C  0.60749116  0.64048570  0.89799221    -0.12200
C2463       C  0.61819363  0.62563444  0.87528548     0.01900
C2464       C  0.64627463  0.63793632  0.86600977    -0.00500
C2465       C  0.66229799  0.66602186  0.87469763    -0.12200
C2466       C  0.65153477  0.68079498  0.89743605     0.01800
H2467       H  0.58642513  0.63017103  0.90878640     0.14700
H2468       H  0.68381281  0.67606218  0.86756424     0.14700
C2469       C  0.66955129  0.70880088  0.91012781     0.36400
C2470       C  0.59995475  0.59752853  0.86383975     0.36300
N2471       N  0.68409430  0.73123098  0.92021733    -0.44000
N2472       N  0.58509712  0.57502635  0.85477023    -0.44000
C2473       C  0.69212082  0.51992565  0.95795162    -0.00400
C2474       C  0.70471867  0.52755423  0.00365327    -0.12200
C2475       C  0.69404823  0.51008626  0.04377424     0.01900
C2476       C  0.67129131  0.98478841  0.03768987    -0.00500
C2477       C  0.66133969  0.97590234  0.99072593    -0.12200
C2478       C  0.67104451  0.49327333  0.95098385     0.01800
H2479       H  0.72085775  0.54822206  0.00930551     0.14700
H2480       H  0.64412545  0.95592756  0.98542056     0.14700
C2481       C  0.65815311  0.48423636  0.90437476     0.36400
C2482       C  0.70548208  0.51945452  0.09121623     0.36300
N2483       N  0.64866385  0.97688663  0.86690352    -0.44000
N2484       N  0.71468022  0.52683364  0.12929274    -0.44000
C2485       C  0.64689576  0.52933571  0.30928470    -0.00400
C2486       C  0.66125197  0.51611600  0.29541002    -0.12200
C2487       C  0.64878049  0.99153204  0.26998970     0.01900
C2488       C  0.62098040  0.97884426  0.25960300    -0.00500
C2489       C  0.60611215  0.99091894  0.27591991    -0.12200
C2490       C  0.61867825  0.51591829  0.30050172     0.01800
H2491       H  0.68289666  0.52609571  0.30071662     0.14700
H2492       H  0.58485061  0.98152562  0.26709014     0.14700
C2493       C  0.60227376  0.52781603  0.31366513     0.36400
C2494       C  0.66553693  0.98132074  0.25027588     0.36300
N2495       N  0.58899745  0.53728920  0.32372742    -0.44000
N2496       N  0.67922682  0.97361159  0.23394411    -0.44000
C2497       C  0.68158832  0.59434995  0.04193738    -0.00400
C2498       C  0.67843283  0.57380047  0.07426511    -0.12200
C2499       C  0.67806865  0.57756462  0.12433759     0.01900
C2500       C  0.68222466  0.60267188  0.14191002    -0.00500
C2501       C  0.68365612  0.62244469  0.10937978    -0.12200
C2502       C  0.68281342  0.61817068  0.05946161     0.01800
H2503       H  0.67701178  0.55521820  0.06039667     0.14700
H2504       H  0.68625467  0.64153385  0.12301662     0.14700
C2505       C  0.68459816  0.63882019  0.02640788     0.36400
C2506       C  0.67493201  0.55617677  0.15687455     0.36300
N2507       N  0.68570077  0.65468950  0.99863533    -0.44000
N2508       N  0.67220505  0.53899065  0.18303557    -0.44000
C2509       C  0.70047762  0.69159305  0.21921253    -0.00400
C2510       C  0.71144684  0.69401299  0.17245389    -0.12200
C2511       C  0.70088852  0.70124243  0.13290301     0.01900
C2512       C  0.67885241  0.70535047  0.14041660    -0.00500
C2513       C  0.67095069  0.70704339  0.18807731    -0.12200
C2514       C  0.68189319  0.70047462  0.22754748     0.01800
H2515       H  0.72636215  0.68777657  0.16608720     0.14700
H2516       H  0.65531020  0.71212914  0.19456202     0.14700
C2517       C  0.67336844  0.70198973  0.27623096     0.36400
C2518       C  0.71226623  0.70361720  0.08518670     0.36300
N2519       N  0.66731397  0.70360851  0.31565900    -0.44000
N2520       N  0.72181913  0.70632459  0.04706490    -0.44000
C2521       C  0.66136887  0.63120732  0.43993315    -0.00400
C2522       C  0.67554913  0.65848835  0.45438296    -0.12200
C2523       C  0.66241756  0.67050829  0.47862958     0.01900
C2524       C  0.63433383  0.65505105  0.48818599    -0.00500
C2525       C  0.62108261  0.62695894  0.47858000    -0.12200
C2526       C  0.63431556  0.61504954  0.45455857     0.01800
H2527       H  0.69635754  0.67105593  0.44289404     0.14700
H2528       H  0.59971853  0.61460836  0.48646014     0.14700
C2529       C  0.61910228  0.58669959  0.44159220     0.36400
C2530       C  0.67774103  0.69929547  0.48835422     0.36300
N2531       N  0.60688694  0.56394109  0.43143082    -0.44000
N2532       N  0.69012303  0.72236006  0.49612333    -0.44000
C2533       C  0.59559258  0.78364855  0.56323746    -0.00400
C2534       C  0.59906070  0.80665644  0.53752872    -0.12200
C2535       C  0.60026042  0.82899270  0.56137185     0.01900
C2536       C  0.59778813  0.82862864  0.61249499    -0.00500
C2537       C  0.59366195  0.80524830  0.63801030    -0.12200
C2538       C  0.59253821  0.78297188  0.61411727     0.01800
H2539       H  0.60150354  0.80755549  0.49841043     0.14700
H2540       H  0.59133188  0.80421028  0.67714030     0.14700
C2541       C  0.58769788  0.75963137  0.64294013     0.36400
C2542       C  0.60420944  0.85183934  0.53199082     0.36300
N2543       N  0.58382287  0.74104018  0.66633867    -0.44000
N2544       N  0.60721270  0.87004068  0.50831626    -0.44000
C2545       C  0.97976997  0.81149904  0.87472418    -0.00400
C2546       C  0.97220331  0.80059651  0.82771161    -0.12200
C2547       C  0.49091111  0.81058634  0.78946381     0.01900
C2548       C  0.51736875  0.83137153  0.79848400    -0.00500
C2549       C  0.52548626  0.83987560  0.84636806    -0.12200
C2550       C  0.00685229  0.83039594  0.88421709     0.01800
H2551       H  0.95120167  0.78637980  0.82008429     0.14700
H2552       H  0.54588968  0.85569756  0.85360654     0.14700
C2553       C  0.01525293  0.84277973  0.93139834     0.36400
C2554       C  0.48201680  0.80103489  0.74081277     0.36300
N2555       N  0.02166528  0.85290152  0.96909503    -0.44000
N2556       N  0.47496429  0.79332692  0.70178997    -0.44000
C2557       C  0.62751512  0.99137659  0.69645015    -0.00400
C2558       C  0.61268693  0.00409865  0.71037536    -0.12200
C2559       C  0.62495519  0.52898328  0.73488650     0.01900
C2560       C  0.65280145  0.54221455  0.74470944    -0.00500
C2561       C  0.66816652  0.53100996  0.72669506    -0.12200
C2562       C  0.65583658  0.50571885  0.70313888     0.01800
H2563       H  0.59100938  0.99367737  0.70528019     0.14700
H2564       H  0.68952611  0.54082221  0.73501742     0.14700
C2565       C  0.67276842  0.99428771  0.69062790     0.36400
C2566       C  0.60822031  0.53958979  0.75276989     0.36300
N2567       N  0.68621786  0.98493921  0.68101284    -0.44000
N2568       N  0.59463752  0.54792319  0.76701152    -0.44000
C2569       C  0.59016071  0.91237602  0.87146262    -0.00400
C2570       C  0.60277434  0.90012400  0.89629958    -0.12200
C2571       C  0.60235439  0.89849279  0.94616759     0.01900
C2572       C  0.59047774  0.91097595  0.97365780    -0.00500
C2573       C  0.57836716  0.92401999  0.94927528    -0.12200
C2574       C  0.57802919  0.92475255  0.89829959     0.01800
H2575       H  0.61263688  0.89087232  0.87643420     0.14700
H2576       H  0.56987474  0.93433227  0.96998990     0.14700
C2577       C  0.56527334  0.93821669  0.87478198     0.36400
C2578       C  0.61477595  0.88396238  0.96743120     0.36300
N2579       N  0.55518937  0.94919829  0.85600118    -0.44000
N2580       N  0.62501443  0.87253205  0.98389524    -0.44000
C2581       C  0.91346019  0.74031263  0.57196307    -0.00400
C2582       C  0.91791464  0.73785331  0.62161253    -0.12200
C2583       C  0.91815342  0.71474851  0.63970699     0.01900
C2584       C  0.91302700  0.69322517  0.60811182    -0.00500
C2585       C  0.91157894  0.69702034  0.55796365    -0.12200
C2586       C  0.91229468  0.72045644  0.53959216     0.01800
H2587       H  0.91961661  0.75329523  0.64683807     0.14700
H2588       H  0.90814138  0.68077432  0.53317941     0.14700
C2589       C  0.90944103  0.72227538  0.48788343     0.36400
C2590       C  0.92143316  0.71267414  0.69115020     0.36300
N2591       N  0.90736743  0.72369971  0.44637182    -0.44000
N2592       N  0.92428859  0.71107228  0.73234226    -0.44000
C2593       C  0.82417833  0.73008521  0.45064455    -0.00400
C2594       C  0.82519406  0.73126079  0.39968373    -0.12200
C2595       C  0.80555527  0.71040716  0.37124980     0.01900
C2596       C  0.78354915  0.68753317  0.39358281    -0.00500
C2597       C  0.78244341  0.68639834  0.44457241    -0.12200
C2598       C  0.80239796  0.70702984  0.47302948     0.01800
H2599       H  0.84168427  0.74851527  0.38154591     0.14700
H2600       H  0.76597023  0.66910403  0.46265937     0.14700
C2601       C  0.80003099  0.70328371  0.52502957     0.36400
C2602       C  0.80924326  0.71311654  0.31925709     0.36300
N2603       N  0.79811368  0.70010329  0.56665149    -0.44000
N2604       N  0.81235359  0.71527285  0.27763533    -0.44000
C2605       C  0.53351325  0.88981809  0.57624046    -0.00400
C2606       C  0.52075761  0.90526097  0.56959072    -0.12200
C2607       C  0.99606232  0.89458561  0.54511808     0.01900
C2608       C  0.98333765  0.86749432  0.52734216    -0.00500
C2609       C  0.99769590  0.85321777  0.52987217    -0.12200
C2610       C  0.52245119  0.86405965  0.55428479     0.01800
H2611       H  0.52922924  0.92509874  0.58645990     0.14700
H2612       H  0.98862350  0.83259587  0.51632192     0.14700
C2613       C  0.53433837  0.84696042  0.56099442     0.36400
C2614       C  0.98379030  0.91156184  0.54209542     0.36300
N2615       N  0.54336133  0.83279316  0.56627090    -0.44000
N2616       N  0.97421270  0.92541026  0.54027380    -0.44000
C2617       C  0.90742464  0.83283702  0.70248930    -0.00400
C2618       C  0.88682641  0.83195684  0.73178457    -0.12200
C2619       C  0.88864185  0.83167040  0.78219955     0.01900
C2620       C  0.91037556  0.83038784  0.80307177    -0.00500
C2621       C  0.93215150  0.83388729  0.77405436    -0.12200
C2622       C  0.93119210  0.83610110  0.72370564     0.01800
H2623       H  0.86899894  0.83065132  0.71518187     0.14700
H2624       H  0.94954465  0.83425132  0.79067556     0.14700
C2625       C  0.95421368  0.84096814  0.69446291     0.36400
C2626       C  0.86798007  0.83210019  0.81190428     0.36300
N2627       N  0.97275853  0.84553817  0.67070941    -0.44000
N2628       N  0.85198426  0.83311753  0.83635307    -0.44000
C2629       C  0.88198654  0.85685948  0.40623345    -0.00400
C2630       C  0.85693827  0.84081903  0.38386414    -0.12200
C2631       C  0.84288957  0.85281684  0.36277152     0.01900
C2632       C  0.85415946  0.88140924  0.36376071    -0.00500
C2633       C  0.88064385  0.89733908  0.38100035    -0.12200
C2634       C  0.89444783  0.88535812  0.40235096     0.01800
H2635       H  0.84708016  0.81888355  0.38738464     0.14700
H2636       H  0.88984716  0.91930661  0.38119749     0.14700
C2637       C  0.92041525  0.90274480  0.42411950     0.36400
C2638       C  0.81582353  0.83517180  0.34571946     0.36300
N2639       N  0.94119145  0.91669170  0.44159855    -0.44000
N2640       N  0.79410815  0.82093202  0.33218654    -0.44000
C2641       C  0.68032037  0.91982948  0.73756062    -0.00400
C2642       C  0.68541590  0.92228125  0.78790135    -0.12200
C2643       C  0.70871520  0.92341953  0.80715411     0.01900
C2644       C  0.72766818  0.92232855  0.77566036    -0.00500
C2645       C  0.72425213  0.92356632  0.72521574    -0.12200
C2646       C  0.70087868  0.92219606  0.70595490     0.01800
H2647       H  0.67010087  0.92126541  0.81275836     0.14700
H2648       H  0.73896744  0.92332965  0.70047432     0.14700
C2649       C  0.69745258  0.92031112  0.65395878     0.36400
C2650       C  0.71111285  0.92277992  0.85917854     0.36300
N2651       N  0.69479321  0.91873338  0.61226699    -0.44000
N2652       N  0.71283863  0.92224096  0.90094339    -0.44000
C2653       C  0.67979929  0.78940926  0.95291626    -0.00400
C2654       C  0.70211314  0.81050106  0.97687719    -0.12200
C2655       C  0.72331103  0.83185479  0.95127972     0.01900
C2656       C  0.72276903  0.83259337  0.89995092    -0.00500
C2657       C  0.70069301  0.81129415  0.87593680    -0.12200
C2658       C  0.67944284  0.78999905  0.90150044     0.01800
H2659       H  0.70302607  0.81057703  0.01616546     0.14700
H2660       H  0.69971632  0.81135512  0.83665323     0.14700
C2661       C  0.65781266  0.76911189  0.87337680     0.36400
C2662       C  0.74532207  0.85245794  0.97913666     0.36300
N2663       N  0.64058594  0.75245047  0.85055665    -0.44000
N2664       N  0.76286196  0.86892436  0.00169510    -0.44000
C2665       C  0.82256833  0.81908577  0.62203568    -0.00400
C2666       C  0.81496788  0.80492563  0.66653924    -0.12200
C2667       C  0.80759295  0.81536120  0.70631199     0.01900
C2668       C  0.80733424  0.83992476  0.70098242    -0.00500
C2669       C  0.81175919  0.85210446  0.65494800    -0.12200
C2670       C  0.81945348  0.84202157  0.61565879     0.01800
H2671       H  0.81774581  0.78748049  0.67191215     0.14700
H2672       H  0.81091335  0.87065989  0.65035657     0.14700
C2673       C  0.82640865  0.85689650  0.57034120     0.36400
C2674       C  0.80284899  0.80196515  0.75275768     0.36300
N2675       N  0.83213213  0.86878510  0.53404067    -0.44000
N2676       N  0.79903540  0.79100967  0.78982476    -0.44000
C2677       C  0.87221223  0.86490560  0.97756064    -0.00400
C2678       C  0.88771626  0.89072541  0.95593439    -0.12200
C2679       C  0.87554580  0.90380352  0.93223727     0.01900
C2680       C  0.84723011  0.89153155  0.93036398    -0.00500
C2681       C  0.83161549  0.86722381  0.95600007    -0.12200
C2682       C  0.84373746  0.85382339  0.97942533     0.01800
H2683       H  0.90950290  0.90009705  0.95457274     0.14700
H2684       H  0.80979892  0.85757411  0.95449179     0.14700
C2685       C  0.82614849  0.82797536  0.00218905     0.36400
C2686       C  0.89250415  0.92914320  0.90725707     0.36300
N2687       N  0.81193827  0.80724465  0.02032817    -0.44000
N2688       N  0.90591128  0.94940483  0.88704040    -0.44000
C2689       C  0.85765813  0.99620522  0.82237139    -0.00400
C2690       C  0.88379751  0.50631173  0.80320185    -0.12200
C2691       C  0.89726179  0.53160851  0.78002236     0.01900
C2692       C  0.88488706  0.54780104  0.77632434    -0.00500
C2693       C  0.86077267  0.53980589  0.80188785    -0.12200
C2694       C  0.84713607  0.01425031  0.82514413     0.01800
H2695       H  0.89299303  0.99352181  0.80201190     0.14700
H2696       H  0.85130442  0.55233762  0.79995223     0.14700
C2697       C  0.82172811  0.00665227  0.84861810     0.36400
C2698       C  0.92287912  0.53959592  0.75677930     0.36300
N2699       N  0.80143208  0.00073772  0.86761189    -0.44000
N2700       N  0.94330322  0.54603691  0.73781474    -0.44000
C2701       C  0.81242138  0.92440978  0.64213704    -0.00400
C2702       C  0.78956272  0.92308276  0.62085199    -0.12200
C2703       C  0.78657763  0.92202132  0.57074170     0.01900
C2704       C  0.80674966  0.92206925  0.54082343    -0.00500
C2705       C  0.83089378  0.92621730  0.56181459    -0.12200
C2706       C  0.83384555  0.92726140  0.61237451     0.01800
H2707       H  0.77329337  0.92141898  0.64368709     0.14700
H2708       H  0.84692154  0.92740229  0.53885787     0.14700
C2709       C  0.85799408  0.92909213  0.63264997     0.36400
C2710       C  0.76263876  0.92110030  0.55123866     0.36300
N2711       N  0.87741051  0.93059601  0.64871302    -0.44000
N2712       N  0.74347758  0.92045435  0.53582740    -0.44000
C2713       C  0.77207400  0.59641763  0.26595650    -0.00400
C2714       C  0.78907319  0.59391138  0.29970650    -0.12200
C2715       C  0.81226312  0.59338900  0.28434571     0.01900
C2716       C  0.81894597  0.59574177  0.23430247    -0.00500
C2717       C  0.80001672  0.59429971  0.20049677    -0.12200
C2718       C  0.77664893  0.59447853  0.21579147     0.01800
H2719       H  0.78543844  0.59442831  0.33822614     0.14700
H2720       H  0.80447082  0.59526219  0.16203073     0.14700
C2721       C  0.75848186  0.59406695  0.17893199     0.36400
C2722       C  0.82939364  0.59147819  0.32087533     0.36300
N2723       N  0.74402090  0.59382939  0.14932068    -0.44000
N2724       N  0.84294922  0.58980119  0.35028802    -0.44000
C2725       C  0.90067150  0.68649677  0.10935646    -0.00400
C2726       C  0.88680595  0.68048905  0.06494564    -0.12200
C2727       C  0.88485654  0.70057841  0.03803629     0.01900
C2728       C  0.89711844  0.72769129  0.05496385    -0.00500
C2729       C  0.91095587  0.73374762  0.09932848    -0.12200
C2730       C  0.91301903  0.71372511  0.12622568     0.01800
H2731       H  0.87673749  0.65977508  0.05165828     0.14700
H2732       H  0.92055286  0.75438874  0.11292758     0.14700
C2733       C  0.92852983  0.72209511  0.17045935     0.36400
C2734       C  0.86889292  0.69240296  0.99439958     0.36300
N2735       N  0.94099602  0.72887540  0.20585362    -0.44000
N2736       N  0.85603720  0.68599201  0.95947649    -0.44000
C2737       C  0.96837339  0.62291604  0.08093719    -0.00400
C2738       C  0.97507103  0.64506842  0.04974678    -0.12200
C2739       C  0.00075711  0.65920638  0.02736475     0.01900
C2740       C  0.52045752  0.65125939  0.03614457    -0.00500
C2741       C  0.51256619  0.62753888  0.06360015    -0.12200
C2742       C  0.98710078  0.61352051  0.08565421     0.01800
H2743       H  0.96095124  0.65250366  0.04538344     0.14700
H2744       H  0.52689206  0.62058800  0.07038243     0.14700
C2745       C  0.98136550  0.59016932  0.11512546     0.36400
C2746       C  0.00635865  0.68193558  0.99625165     0.36300
N2747       N  0.47736120  0.57177761  0.13921414    -0.44000
N2748       N  0.01069226  0.70001239  0.97099990    -0.44000
C2749       C  0.98688130  0.67891285  0.28893042    -0.00400
C2750       C  0.48412474  0.69480862  0.32573888    -0.12200
C2751       C  0.49938092  0.70078226  0.36872990     0.01900
C2752       C  0.51645857  0.68970409  0.37568141    -0.00500
C2753       C  0.02010518  0.67537867  0.33762210    -0.12200
C2754       C  0.00687493  0.67136308  0.29381548     0.01800
H2755       H  0.46862347  0.70051258  0.32282755     0.14700
H2756       H  0.03350116  0.66711017  0.34184090     0.14700
C2757       C  0.01242560  0.65705035  0.25597909     0.36400
C2758       C  0.49563271  0.71626839  0.40636259     0.36300
N2759       N  0.01677022  0.64548618  0.22587908    -0.44000
N2760       N  0.49269806  0.72874400  0.43657866    -0.44000
C2761       C  0.86749076  0.51970575  0.18844408    -0.00400
C2762       C  0.83952089  0.50738812  0.19664276    -0.12200
C2763       C  0.82555081  0.98217551  0.22066002     0.01900
C2764       C  0.83935713  0.96855763  0.23615808    -0.00500
C2765       C  0.86632551  0.47926873  0.22308271    -0.12200
C2766       C  0.88042991  0.50441402  0.19918421     0.01800
H2767       H  0.82918689  0.51870296  0.18896616     0.14700
H2768       H  0.87705971  0.46888145  0.23457527     0.14700
C2769       C  0.90861913  0.51461384  0.18874787     0.36400
C2770       C  0.79785214  0.97245247  0.23453902     0.36300
N2771       N  0.93118641  0.52238346  0.18074454    -0.44000
N2772       N  0.77574702  0.96489478  0.24608723    -0.44000
C2773       C  0.90817472  0.60056296  0.47387979    -0.00400
C2774       C  0.89672710  0.57671700  0.44608098    -0.12200
C2775       C  0.89775535  0.57801977  0.39541472     0.01900
C2776       C  0.91067558  0.60363591  0.37247819    -0.00500
C2777       C  0.92427251  0.62730137  0.40069492    -0.12200
C2778       C  0.92305531  0.62593993  0.45109261     0.01800
H2779       H  0.88546100  0.55717885  0.46384003     0.14700
H2780       H  0.93535652  0.64704646  0.38327573     0.14700
C2781       C  0.93708641  0.65073871  0.47872020     0.36400
C2782       C  0.88371429  0.55310200  0.36814440     0.36300
N2783       N  0.94852132  0.67054220  0.50093842    -0.44000
N2784       N  0.87243971  0.53317646  0.34618389    -0.44000
loop_ 
_geom_bond_atom_site_label_1 
_geom_bond_atom_site_label_2 
_geom_bond_distance 
_geom_bond_site_symmetry_2 
_ccdc_geom_bond_type 
Fe1          O17   2.042       .  S
Fe1           O7   2.031       .  S
Fe1          O14   2.045       .  S
Fe1           O6   2.053       .  S
Fe1          O12   1.960       .  S
Fe2           O5   2.090       .  S
Fe2           O9   2.132       .  S
Fe2          O13   2.104       .  S
Fe2          O18   2.108       .  S
Fe2          O12   1.967       .  S
Fe3          O21   2.061       .  S
Fe3           O8   2.040       .  S
Fe3          O15   2.062       .  S
Fe3           O4   2.052       .  S
Fe3          O12   1.970       .  S
O4           C11   1.267       .  A
O5           C19   1.272       .  A
O6           C11   1.267       .  A
O7           C10   1.265       .  A
O8           C20   1.269       .  A
O9           C22   1.286       .  A
C10          O15   1.267       .  A
C10         C661   1.474       .  S
C11         C688   1.468       .  S
O13          C16   1.271       .  A
O14          C16   1.260       .  A
C16         C673   1.499       .  S
O17          C22   1.269       .  A
O18          C20   1.282       .  A
C19          O21   1.265       .  A
C19         C637   1.503       .  S
C20         C628   1.485       .  S
C22         C649   1.497       .  S
Fe23         O39   2.040       .  S
Fe23         O29   2.064       .  S
Fe23         O36   2.064       .  S
Fe23         O28   2.059       .  S
Fe23         O34   1.963       .  S
Fe24         O27   2.073       .  S
Fe24         O31   2.129       .  S
Fe24         O35   2.083       .  S
Fe24         O40   2.113       .  S
Fe24         O34   1.957       .  S
Fe25         O43   2.065       .  S
Fe25         O30   2.034       .  S
Fe25         O37   2.057       .  S
Fe25         O26   2.065       .  S
Fe25         O34   1.948       .  S
O26          C33   1.275       .  A
O27          C41   1.271       .  A
O28          C33   1.273       .  A
O29          C32   1.264       .  A
O30          C42   1.265       .  A
O31          C44   1.287       .  A
C32          O37   1.261       .  A
C32         C580   1.470       .  S
C33         C613   1.466       .  S
O35          C38   1.267       .  A
O36          C38   1.264       .  A
C38         C601   1.502       .  S
O39          C44   1.273       .  A
O40          C42   1.279       .  A
C41          O43   1.270       .  A
C41         C568   1.497       .  S
C42         C556   1.490       .  S
C44         C592   1.484       .  S
Fe45         O61   2.028       .  S
Fe45         O51   2.060       .  S
Fe45         O58   2.063       .  S
Fe45         O50   2.048       .  S
Fe45         O56   1.955       .  S
Fe46         O49   2.068       .  S
Fe46         O53   2.117       .  S
Fe46         O57   2.077       .  S
Fe46         O62   2.102       .  S
Fe46         O56   1.954       .  S
Fe47         O65   2.073       .  S
Fe47         O52   2.048       .  S
Fe47         O59   2.052       .  S
Fe47         O48   2.066       .  S
Fe47         O56   1.951       .  S
O48          C55   1.271       .  A
O49          C63   1.273       .  A
O50          C55   1.267       .  A
O51          C54   1.268       .  A
O52          C64   1.267       .  A
O53          C66   1.280       .  A
C54          O59   1.266       .  A
C54         C577   1.468       .  S
C55         C529   1.456       .  S
O57          C60   1.270       .  A
O58          C60   1.264       .  A
C60         C520   1.498       .  S
O61          C66   1.266       .  A
O62          C64   1.277       .  A
C63          O65   1.270       .  A
C63         C505   1.499       .  S
C64         C493   1.491       .  S
C66         C541   1.475       .  S
Fe67         O83   2.046       .  S
Fe67         O73   2.074       .  S
Fe67         O80   2.071       .  S
Fe67         O72   2.066       .  S
Fe67         O78   1.965       .  S
Fe68         O71   2.066       .  S
Fe68         O75   2.109       .  S
Fe68         O79   2.065       .  S
Fe68         O84   2.108       .  S
Fe68         O78   1.954       .  S
Fe69         O87   2.044       .  S
Fe69         O74   2.041       .  S
Fe69         O81   2.052       .  S
Fe69         O70   2.029       .  S
Fe69         O78   1.942       .  S
O70          C77   1.267       .  A
O71          C85   1.268       .  A
O72          C77   1.269       .  A
O73          C76   1.269       .  A
O74          C86   1.267       .  A
O75          C88   1.280       .  A
C76          O81   1.263       .  A
C76         C460   1.467       .  S
C77         C481   1.474       .  S
O79          C82   1.266       .  A
O80          C82   1.268       .  A
C82         C469   1.497       .  S
O83          C88   1.271       .  A
O84          C86   1.278       .  A
C85          O87   1.264       .  A
C85         C448   1.489       .  S
C86         C553   1.492       .  S
C88         C517   1.476       .  S
Fe89        O105   2.038       .  S
Fe89         O95   2.074       .  S
Fe89        O102   2.076       .  S
Fe89         O94   2.052       .  S
Fe89        O100   1.949       .  S
Fe90         O93   2.071       .  S
Fe90         O97   2.120       .  S
Fe90        O101   2.072       .  S
Fe90        O106   2.107       .  S
Fe90        O100   1.949       .  S
Fe91        O109   2.072       .  S
Fe91         O96   2.030       .  S
Fe91        O103   2.036       .  S
Fe91         O92   2.077       .  S
Fe91        O100   1.941       .  S
O92          C99   1.274       .  A
O93         C107   1.273       .  A
O94          C99   1.269       .  A
O95          C98   1.270       .  A
O96         C108   1.263       .  A
O97         C110   1.281       .  A
C98         O103   1.260       .  A
C98         C421   1.461       .  S
C99         C412   1.462       .  S
O101        C104   1.269       .  A
O102        C104   1.267       .  A
C104        C397   1.498       .  S
O105        C110   1.269       .  A
O106        C108   1.278       .  A
C107        O109   1.271       .  A
C107        C508   1.499       .  S
C108        C625   1.489       .  S
C110        C433   1.476       .  S
Fe111       O127   2.041       .  S
Fe111       O117   2.074       .  S
Fe111       O124   2.082       .  S
Fe111       O116   2.044       .  S
Fe111       O122   1.960       .  S
Fe112       O115   2.069       .  S
Fe112       O119   2.112       .  S
Fe112       O123   2.074       .  S
Fe112       O128   2.105       .  S
Fe112       O122   1.958       .  S
Fe113       O131   2.077       .  S
Fe113       O118   2.044       .  S
Fe113       O125   2.043       .  S
Fe113       O114   2.073       .  S
Fe113       O122   1.959       .  S
O114        C121   1.269       .  A
O115        C129   1.269       .  A
O116        C121   1.265       .  A
O117        C120   1.272       .  A
O118        C130   1.268       .  A
O119        C132   1.279       .  A
C120        O125   1.265       .  A
C120        C385   1.465       .  S
C121        C409   1.458   1_556  S
O123        C126   1.269       .  A
O124        C126   1.270       .  A
C126        C376   1.501       .  S
O127        C132   1.267       .  A
O128        C130   1.279       .  A
C129        O131   1.270       .  A
C129        C361   1.490       .  S
C130        C349   1.496       .  S
C132        C472   1.479       .  S
Fe133       O149   2.052       .  S
Fe133       O139   2.055       .  S
Fe133       O146   2.055       .  S
Fe133       O138   2.072       .  S
Fe133       O144   1.970       .  S
Fe134       O137   2.064       .  S
Fe134       O141   2.108       .  S
Fe134       O145   2.073       .  S
Fe134       O150   2.095       .  S
Fe134       O144   1.970       .  S
Fe135       O153   2.045       .  S
Fe135       O140   2.047       .  S
Fe135       O147   2.058       .  S
Fe135       O136   2.039       .  S
Fe135       O144   1.964       .  S
O136        C143   1.267       .  A
O137        C151   1.267       .  A
O138        C143   1.272       .  A
O139        C142   1.267       .  A
O140        C152   1.268       .  A
O141        C154   1.280       .  A
C142        O147   1.265       .  A
C142        C664   1.477       .  S
C143        C328   1.475       .  S
O145        C148   1.265       .  A
O146        C148   1.263       .  A
C148        C436   1.494       .  S
O149        C154   1.272       .  A
O150        C152   1.277       .  A
C151        O153   1.264       .  A
C151        C445   1.482       .  S
C152        C313   1.487       .  S
C154        C337   1.483       .  S
Fe155       O171   2.065       .  S
Fe155       O161   2.049       .  S
Fe155       O168   2.043       .  S
Fe155       O160   2.081       .  S
Fe155       O166   1.953       .  S
Fe156       O159   2.091       .  S
Fe156       O163   2.091       .  S
Fe156       O167   2.103       .  S
Fe156       O172   2.089       .  S
Fe156       O166   1.959       .  S
Fe157       O175   2.040       .  S
Fe157       O162   2.049       .  S
Fe157       O169   2.061       .  S
Fe157       O158   2.039       .  S
Fe157       O166   1.957       .  S
O158        C165   1.269       .  A
O159        C173   1.277       .  A
O160        C165   1.271       .  A
O161        C164   1.264       .  A
O162        C174   1.264       .  A
O163        C176   1.272       .  A
C164        O169   1.263       .  A
C164        C301   1.476       .  S
C165        C616   1.470       .  S
O167        C170   1.277       .  A
O168        C170   1.269       .  A
C170        C544   1.490       .  S
O171        C176   1.268       .  A
O172        C174   1.272       .  A
C173        O175   1.269       .  A
C173        C289   1.483       .  S
C174        C316   1.478       .  S
C176        C676   1.486       .  S
Fe177       O193   2.032   1_554  S
Fe177       O183   2.085       .  S
Fe177       O190   2.086       .  S
Fe177       O182   2.034       .  S
Fe177       O188   1.959       .  S
Fe178       O181   2.072       .  S
Fe178       O185   2.141       .  S
Fe178       O189   2.080   1_556  S
Fe178       O194   2.123   1_556  S
Fe178       O188   1.946   1_556  S
Fe179       O197   2.073       .  S
Fe179       O184   2.017       .  S
Fe179       O191   2.036       .  S
Fe179       O180   2.087       .  S
Fe179       O188   1.938       .  S
O180        C187   1.279       .  A
O181        C195   1.271       .  A
O182        C187   1.268       .  A
O183        C186   1.267       .  A
O184        C196   1.260       .  A
O185        C198   1.289       .  A
C186        O191   1.255       .  A
C186        C424   1.467       .  S
C187        C325   1.454       .  S
O189        C192   1.266       .  A
O190        C192   1.270       .  A
C192        C652   1.506       .  S
O193        C198   1.270       .  A
O194        C196   1.282       .  A
C195        O197   1.272   1_556  A
C195        C565   1.500       .  S
C196        C277   1.498       .  S
C198        C373   1.482       .  S
Fe199       O215   2.046       .  S
Fe199       O205   2.074       .  S
Fe199       O212   2.078       .  S
Fe199       O204   2.069       .  S
Fe199       O210   1.962       .  S
Fe200       O203   2.070       .  S
Fe200       O207   2.115       .  S
Fe200       O211   2.071       .  S
Fe200       O216   2.103       .  S
Fe200       O210   1.948       .  S
Fe201       O219   2.047       .  S
Fe201       O206   2.038       .  S
Fe201       O213   2.051       .  S
Fe201       O202   2.031       .  S
Fe201       O210   1.935       .  S
O202        C209   1.265       .  A
O203        C217   1.270       .  A
O204        C209   1.273       .  A
O205        C208   1.269       .  A
O206        C218   1.265       .  A
O207        C220   1.283       .  A
C208        O213   1.263       .  A
C208        C388   1.467       .  S
C209        C484   1.472   1_554  S
O211        C214   1.267       .  A
O212        C214   1.267       .  A
C214        C265   1.492       .  S
O215        C220   1.271       .  A
O216        C218   1.278       .  A
C217        O219   1.265       .  A
C217        C292   1.490       .  S
C218        C280   1.478       .  S
C220        C400   1.478       .  S
Fe221       O237   2.045       .  S
Fe221       O227   2.056       .  S
Fe221       O234   2.051       .  S
Fe221       O226   2.062       .  S
Fe221       O232   1.967       .  S
Fe222       O225   2.098       .  S
Fe222       O229   2.095       .  S
Fe222       O233   2.104       .  S
Fe222       O238   2.089       .  S
Fe222       O232   1.974       .  S
Fe223       O241   2.061       .  S
Fe223       O228   2.043       .  S
Fe223       O235   2.058       .  S
Fe223       O224   2.051       .  S
Fe223       O232   1.961       .  S
O224        C231   1.270       .  A
O225        C239   1.279       .  A
O226        C231   1.268       .  A
O227        C230   1.267       .  A
O228        C240   1.263       .  A
O229        C242   1.274       .  A
C230        O235   1.263       .  A
C230        C304   1.472       .  S
C231        C685   1.460       .  S
O233        C236   1.276       .  A
O234        C236   1.267       .  A
C236        C340   1.496       .  S
O237        C242   1.266       .  A
O238        C240   1.271       .  A
C239        O241   1.272       .  A
C239        C364   1.504       .  S
C240        C496   1.484       .  S
C242        C604   1.484       .  S
Fe243       O259   2.039   1_556  S
Fe243       O249   2.071       .  S
Fe243       O256   2.083       .  S
Fe243       O248   2.043       .  S
Fe243       O254   1.949       .  S
Fe244       O247   2.075       .  S
Fe244       O251   2.122       .  S
Fe244       O255   2.080       .  S
Fe244       O260   2.106   1_554  S
Fe244       O254   1.951   1_554  S
Fe245       O263   2.092       .  S
Fe245       O250   2.041       .  S
Fe245       O257   2.045       .  S
Fe245       O246   2.078       .  S
Fe245       O254   1.947       .  S
O246        C253   1.272       .  A
O247        C261   1.274       .  A
O248        C253   1.266       .  A
O249        C252   1.271       .  A
O250        C262   1.265       .  A
O251        C264   1.280       .  A
C252        O257   1.265       .  A
C252        C457   1.467       .  S
C253        C532   1.457       .  S
O255        C258   1.270   1_554  A
O256        C258   1.271       .  A
C258        C589   1.507       .  S
O259        C264   1.266       .  A
O260        C262   1.277       .  A
C261        O263   1.276   1_554  A
C261        C640   1.499       .  S
C262        C352   1.491       .  S
C264        C268   1.481       .  S
C265        C266   1.406       .  A
C265        C270   1.416   1_455  A
C266       C1659   1.402   1_455  A
C266        H271   1.085       .  S
C267        C268   1.411       .  A
C267       C1658   1.402       .  A
C267        C274   1.445       .  S
C268        C269   1.404       .  A
C269       C1662   1.409       .  A
C269        H272   1.084       .  S
C270       C1661   1.409       .  A
C270        C273   1.443   1_655  S
C273        N275   1.157       .  T
C274        N276   1.157       .  T
C277        C278   1.405       .  A
C277        C282   1.430       .  A
C278        C279   1.405       .  A
C278        H283   1.084       .  S
C279        C280   1.413       .  A
C279        C286   1.442       .  S
C280        C281   1.394       .  A
C281        C282   1.398       .  A
C281        H284   1.086       .  S
C282        C285   1.446       .  S
C285        N287   1.158       .  T
C286        N288   1.156       .  T
C289        C290   1.407       .  A
C289        C294   1.411       .  A
C290        C291   1.399       .  A
C290        H295   1.085       .  S
C291        C292   1.414       .  A
C291        C298   1.444       .  S
C292        C293   1.411       .  A
C293        C294   1.398       .  A
C293        H296   1.084       .  S
C294        C297   1.445       .  S
C297        N299   1.158       .  T
C298        N300   1.157       .  T
C301        C306   1.414       .  A
C301        C998   1.407       .  A
C302        C303   1.404   1_565  A
C302        C997   1.407       .  A
C302        H307   1.085       .  S
C303        C304   1.410       .  A
C303        C310   1.441       .  S
C304        C305   1.400       .  A
C305       C1002   1.393       .  A
C305       H1004   1.086       .  S
C306       C1001   1.393       .  A
C306        C309   1.446       .  S
H308       C1001   1.086       .  S
C309        N311   1.157       .  T
C310        N312   1.157       .  T
C313        C314   1.401       .  A
C313        C318   1.420       .  A
C314        C315   1.401       .  A
C314        H319   1.085       .  S
C315        C316   1.415       .  A
C315        C322   1.444       .  S
C316        C317   1.400       .  A
C317        C318   1.404       .  A
C317        H320   1.085       .  S
C318        C321   1.445       .  S
C321        N323   1.157       .  T
C322        N324   1.157       .  T
C325        C326   1.404       .  A
C325        C330   1.396       .  A
C326        C327   1.402       .  A
C326        H331   1.085       .  S
C327        C328   1.411       .  A
C327        C334   1.444       .  S
C328        C329   1.410       .  A
C329        C330   1.387       .  A
C329        H332   1.084       .  S
C330        C333   1.446       .  S
C333        N335   1.157       .  T
C334        N336   1.158       .  T
C337        C338   1.405       .  A
C337        C342   1.409       .  A
C338        C339   1.408       .  A
C338        H343   1.085       .  S
C339       C1732   1.417   1_455  A
C339        C346   1.443   1_455  S
C340        C341   1.409       .  A
C340       C1731   1.416       .  A
C341       C1734   1.403       .  A
C341        H344   1.085       .  S
C342       C1733   1.403   1_455  A
C342        C345   1.444       .  S
C345       N1739   1.157       .  T
C346        N348   1.157       .  T
N347       C1737   1.157       .  T
C349        C350   1.412       .  A
C349        C354   1.414       .  A
C350        C351   1.403       .  A
C350        H355   1.085       .  S
C351        C352   1.412       .  A
C351        C358   1.444   1_556  S
C352        C353   1.410       .  A
C353        C354   1.403       .  A
C353        H356   1.085       .  S
C354        C357   1.444       .  S
C357        N359   1.157       .  T
C358        N360   1.157       .  T
C361        C362   1.402       .  A
C361        C366   1.413       .  A
C362        C363   1.404       .  A
C362        H367   1.085       .  S
C363        C364   1.423       .  A
C363        C370   1.443       .  S
C364        C365   1.409       .  A
C365        C366   1.403       .  A
C365        H368   1.084       .  S
C366        C369   1.443       .  S
C369        N371   1.157       .  T
C370        N372   1.157       .  T
C373        C374   1.403       .  A
C373        C378   1.411       .  A
C374        C375   1.407       .  A
C374        H379   1.085       .  S
C375        C376   1.418       .  A
C375        C382   1.443       .  S
C376        C377   1.410       .  A
C377        C378   1.406       .  A
C377        H380   1.085       .  S
C378        C381   1.444       .  S
C381        N383   1.157       .  T
C382        N384   1.157       .  T
C385        C386   1.410   1_556  A
C385        C390   1.403   1_545  A
C386        C387   1.403       .  A
C386        H391   1.085       .  S
C387       C1084   1.402   1_545  A
C387        C394   1.443       .  S
C388        C389   1.405   1_554  A
C388       C1083   1.403       .  A
C389       C1086   1.392       .  A
C389        H392   1.081       .  S
C390       C1085   1.392       .  A
C390        C393   1.445       .  S
C393       N1091   1.157       .  T
C394        N396   1.157       .  T
N395       C1089   1.157       .  T
C397        C398   1.408       .  A
C397        C402   1.421       .  A
C398       C1095   1.402   1_545  A
C398        H403   1.085       .  S
C399        C400   1.410       .  A
C399       C1094   1.402       .  A
C399        C406   1.445       .  S
C400        C401   1.401       .  A
C401       C1098   1.407       .  A
C401        H404   1.085       .  S
C402       C1097   1.406   1_545  A
C402        C405   1.444       .  S
C405        N407   1.157       .  T
C406        N408   1.157       .  T
C409        C410   1.403       .  A
C409        C414   1.403       .  A
C410        C411   1.399       .  A
C410        H415   1.085       .  S
C411        C412   1.408       .  A
C411        C418   1.443       .  S
C412        C413   1.403       .  A
C413        C414   1.395       .  A
C413        H416   1.084       .  S
C414        C417   1.444       .  S
C417        N419   1.157   1_554  T
C418        N420   1.157       .  T
C421        C422   1.408       .  A
C421        C426   1.398       .  A
C422        C423   1.402       .  A
C422        H427   1.084       .  S
C423        C424   1.402       .  A
C423        C430   1.442       .  S
C424        C425   1.407       .  A
C425        C426   1.394       .  A
C425        H428   1.079       .  S
C426        C429   1.443       .  S
C429        N431   1.157       .  T
C430        N432   1.157       .  T
C433        C434   1.403       .  A
C433        C438   1.407       .  A
C434        C435   1.405       .  A
C434        H439   1.085       .  S
C435        C436   1.418       .  A
C435        C442   1.444       .  S
C436        C437   1.409       .  A
C437        C438   1.402       .  A
C437        H440   1.085       .  S
C438        C441   1.443       .  S
C441        N443   1.157       .  T
C442        N444   1.157       .  T
C445        C446   1.407       .  A
C445        C450   1.411       .  A
C446        C447   1.398       .  A
C446        H451   1.085       .  S
C447        C448   1.415       .  A
C447        C454   1.445       .  S
C448        C449   1.411       .  A
C449        C450   1.397       .  A
C449        H452   1.084       .  S
C450        C453   1.445       .  S
C453        N455   1.157       .  T
C454        N456   1.157       .  T
C457        C458   1.411       .  A
C457        C462   1.402       .  A
C458       C1851   1.406       .  A
C458        H463   1.082       .  S
C459        C460   1.404   1_655  A
C459       C1850   1.405       .  A
C459        C466   1.443       .  S
C460        C461   1.404       .  A
C461       C1854   1.392       .  A
C461        H464   1.082       .  S
C462       C1853   1.393       .  A
C462        C465   1.445       .  S
C465        N467   1.157       .  T
C466        N468   1.157       .  T
C469        C470   1.408       .  A
C469       C1170   1.421       .  A
C470       C1167   1.402       .  A
C470        H475   1.085       .  S
C471        C472   1.408       .  A
C471       C1166   1.402       .  A
C471        C478   1.443       .  S
C472        C473   1.402       .  A
C473        C474   1.406       .  A
C473        H476   1.085       .  S
C474       C1165   1.421   1_545  A
C474       C1173   1.445   1_545  S
C477       C1170   1.445       .  S
C477        N479   1.158       .  T
C478        N480   1.157       .  T
C481        C482   1.401       .  A
C481        C486   1.413       .  A
C482        C483   1.377       .  A
C482        H487   1.087       .  S
C483        C484   1.416       .  A
C483        C490   1.449       .  S
C484        C485   1.407       .  A
C485        C486   1.406       .  A
C485        H488   1.087       .  S
C486        C489   1.442       .  S
C489        N491   1.157       .  T
C490        N492   1.158       .  T
C493        C494   1.412       .  A
C493        C498   1.412       .  A
C494        C495   1.406       .  A
C494        H499   1.084       .  S
C495        C496   1.408       .  A
C495        C502   1.443       .  S
C496        C497   1.407       .  A
C497        C498   1.401       .  A
C497        H500   1.084       .  S
C498        C501   1.444       .  S
C501        N503   1.157       .  T
C502        N504   1.157       .  T
C505        C506   1.406       .  A
C505        C510   1.421       .  A
C506        C507   1.401       .  A
C506        H511   1.085       .  S
C507        C508   1.420       .  A
C507        C514   1.445       .  S
C508        C509   1.407       .  A
C509        C510   1.403       .  A
C509        H512   1.085       .  S
C510        C513   1.445       .  S
C513        N515   1.158       .  T
C514        N516   1.157       .  T
C517        C518   1.399       .  A
C517        C522   1.410       .  A
C518       C1911   1.401   1_455  A
C518        H523   1.085       .  S
C519        C520   1.422       .  A
C519       C1910   1.401       .  A
C519        C526   1.444       .  S
C520        C521   1.409       .  A
C521       C1914   1.404       .  A
C521        H524   1.084       .  S
C522       C1913   1.403   1_455  A
C522        C525   1.442       .  S
C525        N527   1.157       .  T
C526        N528   1.157       .  T
C529        C530   1.404       .  A
C529        C534   1.403       .  A
C530        C531   1.395       .  A
C530        H535   1.085       .  S
C531        C532   1.402       .  A
C531        C538   1.444       .  S
C532        C533   1.405       .  A
C533        C534   1.397       .  A
C533        H536   1.085       .  S
C534        C537   1.444       .  S
C537        N539   1.158       .  T
C538        N540   1.157       .  T
C541        C542   1.403       .  A
C541        C546   1.409       .  A
C542        C543   1.407       .  A
C542        H547   1.085       .  S
C543        C544   1.416       .  A
C543        C550   1.443       .  S
C544        C545   1.407       .  A
C545        C546   1.399       .  A
C545        H548   1.085       .  S
C546        C549   1.445       .  S
C549        N551   1.157       .  T
C550        N552   1.157       .  T
C553        C554   1.411       .  A
C553        C558   1.411       .  A
C554        C555   1.404       .  A
C554        H559   1.088       .  S
C555        C556   1.410       .  A
C555        C562   1.443       .  S
C556        C557   1.411       .  A
C557        C558   1.403       .  A
C557        H560   1.085       .  S
C558        C561   1.444       .  S
C561        N563   1.157       .  T
C562        N564   1.157       .  T
C565        C566   1.410       .  A
C565        C570   1.418       .  A
C566        C567   1.403       .  A
C566        H571   1.084   1_556  S
C567        C568   1.416       .  A
C567        C574   1.445       .  S
C568        C569   1.408       .  A
C569        C570   1.402       .  A
C569        H572   1.085       .  S
C570        C573   1.445       .  S
C573        N575   1.157       .  T
C574        N576   1.157   1_556  T
C577        C578   1.409       .  A
C577        C582   1.406       .  A
C578        C579   1.405       .  A
C578        H583   1.085       .  S
C579        C580   1.406       .  A
C579        C586   1.442       .  S
C580        C581   1.405       .  A
C581        C582   1.393       .  A
C581        H584   1.083       .  S
C582        C585   1.446       .  S
C585        N587   1.157       .  T
C586        N588   1.157       .  T
C589        C590   1.411       .  A
C589        C594   1.423       .  A
C590        C591   1.402       .  A
C590        H595   1.084       .  S
C591        C592   1.409       .  A
C591        C598   1.445       .  S
C592        C593   1.403       .  A
C593        C594   1.411       .  A
C593        H596   1.085       .  S
C594        C597   1.444   1_556  S
C597        N599   1.157       .  T
C598        N600   1.157       .  T
C601        C606   1.420       .  A
C601       C1298   1.410       .  A
C602        C603   1.399       .  A
C602       C1297   1.410   1_545  A
C602       H1303   1.084   1_545  S
C603        C604   1.411       .  A
C603        C610   1.446       .  S
C604        C605   1.404       .  A
C605       C1302   1.410       .  A
C605        H608   1.085       .  S
C606       C1301   1.409       .  A
C606        C609   1.443       .  S
H607       C1298   1.085       .  S
C609        N611   1.157       .  T
C610        N612   1.157       .  T
C613        C614   1.399       .  A
C613        C618   1.411       .  A
C614        C615   1.390       .  A
C614        H619   1.085       .  S
C615        C616   1.413       .  A
C615        C622   1.446       .  S
C616        C617   1.404       .  A
C617        C618   1.402       .  A
C617        H620   1.085       .  S
C618        C621   1.443       .  S
C621        N623   1.157       .  T
C622        N624   1.157       .  T
C625        C626   1.402       .  A
C625        C630   1.421       .  A
C626        C627   1.402       .  A
C626        H631   1.085       .  S
C627        C628   1.419       .  A
C627        C634   1.446       .  S
C628        C629   1.400       .  A
C629        C630   1.402       .  A
C629        H632   1.085       .  S
C630        C633   1.445       .  S
C633        N635   1.157       .  T
C634        N636   1.157       .  T
C637        C638   1.407       .  A
C637        C642   1.421       .  A
C638        C639   1.406       .  A
C638        H643   1.084       .  S
C639        C640   1.416       .  A
C639        C646   1.442   1_554  S
C640        C641   1.405       .  A
C641        C642   1.406       .  A
C641        H644   1.084       .  S
C642        C645   1.445       .  S
C645        N647   1.157       .  T
C646        N648   1.157       .  T
C649        C650   1.407       .  A
C649        C654   1.415       .  A
C650        C651   1.415       .  A
C650        H655   1.084       .  S
C651       C2044   1.422       .  A
C651        C658   1.443   1_554  S
C652        C653   1.406       .  A
C652       C2043   1.422       .  A
C653       C2046   1.400   1_455  A
C653        H656   1.085       .  S
C654       C2045   1.400       .  A
C654        C657   1.443       .  S
C657       N2051   1.156       .  T
C658        N660   1.157       .  T
N659       C2049   1.156       .  T
C661        C666   1.409       .  A
C661       C2054   1.412       .  A
C662        C663   1.411       .  A
C662       C2053   1.412       .  A
C662        H667   1.084       .  S
C663        C664   1.408   1_655  A
C663        C670   1.442       .  S
C664       C2057   1.403       .  A
C665        C666   1.384       .  A
C665       C2056   1.403       .  A
C665        H668   1.082       .  S
C666        C669   1.449       .  S
C669        N671   1.158       .  T
C670        N672   1.157       .  T
C673        C674   1.407       .  A
C673        C678   1.419       .  A
C674       C1371   1.409   1_545  A
C674        H679   1.085       .  S
C675        C676   1.414       .  A
C675       C1370   1.409       .  A
C675        C682   1.443       .  S
C676       C1373   1.401       .  A
C677        C678   1.404   1_565  A
C677       C1372   1.401       .  A
C677        H680   1.085       .  S
C678        C681   1.442       .  S
C681        N683   1.156       .  T
C682        N684   1.157       .  T
C685        C686   1.404       .  A
C685        C690   1.403       .  A
C686        C687   1.398       .  A
C686        H691   1.082       .  S
C687        C688   1.408       .  A
C687        C694   1.445       .  S
C688        C689   1.407       .  A
C689        C690   1.391       .  A
C689        H692   1.085       .  S
C690        C693   1.445       .  S
C693        N695   1.157       .  T
C694        N696   1.158       .  T
Fe697       O713   2.042       .  S
Fe697       O703   2.032       .  S
Fe697       O710   2.045       .  S
Fe697       O702   2.053       .  S
Fe697       O708   1.960       .  S
Fe698       O701   2.090       .  S
Fe698       O705   2.133       .  S
Fe698       O709   2.103       .  S
Fe698       O714   2.108       .  S
Fe698       O708   1.967       .  S
Fe699       O717   2.061       .  S
Fe699       O704   2.040       .  S
Fe699       O711   2.062       .  S
Fe699       O700   2.052       .  S
Fe699       O708   1.970       .  S
O700        C707   1.267       .  A
O701        C715   1.272       .  A
O702        C707   1.267       .  A
O703        C706   1.265       .  A
O704        C716   1.269       .  A
O705        C718   1.286       .  A
C706        O711   1.267       .  A
C706       C1357   1.474       .  S
C707       C1384   1.468       .  S
O709        C712   1.271       .  A
O710        C712   1.260       .  A
C712       C1369   1.499       .  S
O713        C718   1.269       .  A
O714        C716   1.282       .  A
C715        O717   1.265       .  A
C715       C1333   1.503       .  S
C716       C1324   1.485       .  S
C718       C1345   1.497       .  S
Fe719       O735   2.040       .  S
Fe719       O725   2.064       .  S
Fe719       O732   2.064       .  S
Fe719       O724   2.059       .  S
Fe719       O730   1.963       .  S
Fe720       O723   2.073       .  S
Fe720       O727   2.129       .  S
Fe720       O731   2.083       .  S
Fe720       O736   2.113       .  S
Fe720       O730   1.957       .  S
Fe721       O739   2.066       .  S
Fe721       O726   2.034       .  S
Fe721       O733   2.058       .  S
Fe721       O722   2.066       .  S
Fe721       O730   1.948       .  S
O722        C729   1.275       .  A
O723        C737   1.271       .  A
O724        C729   1.274       .  A
O725        C728   1.264       .  A
O726        C738   1.265       .  A
O727        C740   1.287       .  A
C728        O733   1.261       .  A
C728       C1276   1.470       .  S
C729       C1309   1.466       .  S
O731        C734   1.267       .  A
O732        C734   1.264       .  A
C734       C1297   1.502       .  S
O735        C740   1.273       .  A
O736        C738   1.279       .  A
C737        O739   1.270       .  A
C737       C1264   1.497       .  S
C738       C1252   1.490       .  S
C740       C1288   1.484       .  S
Fe741       O757   2.028       .  S
Fe741       O747   2.059       .  S
Fe741       O754   2.062       .  S
Fe741       O746   2.048       .  S
Fe741       O752   1.955       .  S
Fe742       O745   2.069       .  S
Fe742       O749   2.117       .  S
Fe742       O753   2.077       .  S
Fe742       O758   2.102       .  S
Fe742       O752   1.954       .  S
Fe743       O761   2.073       .  S
Fe743       O748   2.048       .  S
Fe743       O755   2.052       .  S
Fe743       O744   2.066       .  S
Fe743       O752   1.951       .  S
O744        C751   1.271       .  A
O745        C759   1.272       .  A
O746        C751   1.267       .  A
O747        C750   1.268       .  A
O748        C760   1.268       .  A
O749        C762   1.280       .  A
C750        O755   1.266       .  A
C750       C1273   1.468       .  S
C751       C1225   1.457       .  S
O753        C756   1.270       .  A
O754        C756   1.264       .  A
C756       C1216   1.497       .  S
O757        C762   1.266       .  A
O758        C760   1.277       .  A
C759        O761   1.270       .  A
C759       C1201   1.499       .  S
C760       C1189   1.491       .  S
C762       C1237   1.475       .  S
Fe763       O779   2.045       .  S
Fe763       O769   2.075       .  S
Fe763       O776   2.072       .  S
Fe763       O768   2.066       .  S
Fe763       O774   1.965       .  S
Fe764       O767   2.066       .  S
Fe764       O771   2.109       .  S
Fe764       O775   2.065       .  S
Fe764       O780   2.107       .  S
Fe764       O774   1.954       .  S
Fe765       O783   2.045       .  S
Fe765       O770   2.041       .  S
Fe765       O777   2.052       .  S
Fe765       O766   2.030       .  S
Fe765       O774   1.942       .  S
O766        C773   1.267       .  A
O767        C781   1.268       .  A
O768        C773   1.270       .  A
O769        C772   1.269       .  A
O770        C782   1.266       .  A
O771        C784   1.280       .  A
C772        O777   1.263       .  A
C772       C1156   1.467       .  S
C773       C1177   1.474       .  S
O775        C778   1.266       .  A
O776        C778   1.268       .  A
C778       C1165   1.497       .  S
O779        C784   1.271       .  A
O780        C782   1.278       .  A
C781        O783   1.265       .  A
C781       C1144   1.489       .  S
C782       C1249   1.492       .  S
C784       C1213   1.476       .  S
Fe785       O801   2.038       .  S
Fe785       O791   2.074       .  S
Fe785       O798   2.077       .  S
Fe785       O790   2.052       .  S
Fe785       O796   1.950       .  S
Fe786       O789   2.071       .  S
Fe786       O793   2.120       .  S
Fe786       O797   2.073       .  S
Fe786       O802   2.107       .  S
Fe786       O796   1.949       .  S
Fe787       O805   2.072       .  S
Fe787       O792   2.030       .  S
Fe787       O799   2.036       .  S
Fe787       O788   2.077       .  S
Fe787       O796   1.941       .  S
O788        C795   1.273       .  A
O789        C803   1.273       .  A
O790        C795   1.269       .  A
O791        C794   1.270       .  A
O792        C804   1.263       .  A
O793        C806   1.281       .  A
C794        O799   1.260       .  A
C794       C1117   1.461       .  S
C795       C1108   1.462       .  S
O797        C800   1.269       .  A
O798        C800   1.267       .  A
C800       C1093   1.498       .  S
O801        C806   1.269       .  A
O802        C804   1.278       .  A
C803        O805   1.271       .  A
C803       C1204   1.499       .  S
C804       C1321   1.489       .  S
C806       C1129   1.476       .  S
Fe807       O823   2.041       .  S
Fe807       O813   2.074       .  S
Fe807       O820   2.082       .  S
Fe807       O812   2.043       .  S
Fe807       O818   1.960       .  S
Fe808       O811   2.069       .  S
Fe808       O815   2.112       .  S
Fe808       O819   2.075       .  S
Fe808       O824   2.104       .  S
Fe808       O818   1.958       .  S
Fe809       O827   2.077       .  S
Fe809       O814   2.045       .  S
Fe809       O821   2.043       .  S
Fe809       O810   2.073       .  S
Fe809       O818   1.960       .  S
O810        C817   1.269       .  A
O811        C825   1.269       .  A
O812        C817   1.265       .  A
O813        C816   1.272       .  A
O814        C826   1.268       .  A
O815        C828   1.279       .  A
C816        O821   1.265       .  A
C816       C1081   1.465       .  S
C817       C1105   1.458   1_556  S
O819        C822   1.269       .  A
O820        C822   1.270       .  A
C822       C1072   1.501       .  S
O823        C828   1.267       .  A
O824        C826   1.279       .  A
C825        O827   1.270       .  A
C825       C1057   1.491       .  S
C826       C1045   1.495       .  S
C828       C1168   1.479       .  S
Fe829       O845   2.052       .  S
Fe829       O835   2.055       .  S
Fe829       O842   2.055       .  S
Fe829       O834   2.072       .  S
Fe829       O840   1.970       .  S
Fe830       O833   2.064       .  S
Fe830       O837   2.108       .  S
Fe830       O841   2.073       .  S
Fe830       O846   2.095       .  S
Fe830       O840   1.970       .  S
Fe831       O849   2.045       .  S
Fe831       O836   2.048       .  S
Fe831       O843   2.058       .  S
Fe831       O832   2.039       .  S
Fe831       O840   1.964       .  S
O832        C839   1.267       .  A
O833        C847   1.267       .  A
O834        C839   1.272       .  A
O835        C838   1.267       .  A
O836        C848   1.268       .  A
O837        C850   1.280       .  A
C838        O843   1.265       .  A
C838       C1360   1.478       .  S
C839       C1024   1.475       .  S
O841        C844   1.265       .  A
O842        C844   1.263       .  A
C844       C1132   1.494       .  S
O845        C850   1.272       .  A
O846        C848   1.277       .  A
C847        O849   1.264       .  A
C847       C1141   1.483       .  S
C848       C1009   1.487       .  S
C850       C1033   1.483       .  S
Fe851       O867   2.065       .  S
Fe851       O857   2.049       .  S
Fe851       O864   2.044       .  S
Fe851       O856   2.081       .  S
Fe851       O862   1.953       .  S
Fe852       O855   2.091       .  S
Fe852       O859   2.092       .  S
Fe852       O863   2.104       .  S
Fe852       O868   2.089       .  S
Fe852       O862   1.959       .  S
Fe853       O871   2.040       .  S
Fe853       O858   2.049       .  S
Fe853       O865   2.061       .  S
Fe853       O854   2.039       .  S
Fe853       O862   1.957       .  S
O854        C861   1.269       .  A
O855        C869   1.277       .  A
O856        C861   1.271       .  A
O857        C860   1.264       .  A
O858        C870   1.264       .  A
O859        C872   1.272       .  A
C860        O865   1.263       .  A
C860        C997   1.476       .  S
C861       C1312   1.470       .  S
O863        C866   1.278       .  A
O864        C866   1.269       .  A
C866       C1240   1.490       .  S
O867        C872   1.268       .  A
O868        C870   1.272       .  A
C869        O871   1.269       .  A
C869        C985   1.483       .  S
C870       C1012   1.478       .  S
C872       C1372   1.487       .  S
Fe873       O889   2.033   1_554  S
Fe873       O879   2.085       .  S
Fe873       O886   2.086       .  S
Fe873       O878   2.034       .  S
Fe873       O884   1.959       .  S
Fe874       O877   2.072       .  S
Fe874       O881   2.141       .  S
Fe874       O885   2.080   1_556  S
Fe874       O890   2.123   1_556  S
Fe874       O884   1.946   1_556  S
Fe875       O893   2.073       .  S
Fe875       O880   2.018       .  S
Fe875       O887   2.036       .  S
Fe875       O876   2.087       .  S
Fe875       O884   1.939       .  S
O876        C883   1.279       .  A
O877        C891   1.271       .  A
O878        C883   1.268       .  A
O879        C882   1.267       .  A
O880        C892   1.260       .  A
O881        C894   1.289       .  A
C882        O887   1.255       .  A
C882       C1120   1.467       .  S
C883       C1021   1.454       .  S
O885        C888   1.266       .  A
O886        C888   1.270       .  A
C888       C1348   1.507       .  S
O889        C894   1.270       .  A
O890        C892   1.282       .  A
C891        O893   1.272   1_556  A
C891       C1261   1.500       .  S
C892        C973   1.498       .  S
C894       C1069   1.482       .  S
Fe895       O911   2.046       .  S
Fe895       O901   2.074       .  S
Fe895       O908   2.078       .  S
Fe895       O900   2.069       .  S
Fe895       O906   1.963       .  S
Fe896       O899   2.070       .  S
Fe896       O903   2.115       .  S
Fe896       O907   2.070       .  S
Fe896       O912   2.103       .  S
Fe896       O906   1.948       .  S
Fe897       O915   2.046       .  S
Fe897       O902   2.038       .  S
Fe897       O909   2.051       .  S
Fe897       O898   2.031       .  S
Fe897       O906   1.935       .  S
O898        C905   1.265       .  A
O899        C913   1.270       .  A
O900        C905   1.273       .  A
O901        C904   1.269       .  A
O902        C914   1.265       .  A
O903        C916   1.282       .  A
C904        O909   1.263       .  A
C904       C1084   1.467       .  S
C905       C1180   1.472   1_554  S
O907        C910   1.267       .  A
O908        C910   1.267       .  A
C910        C961   1.492       .  S
O911        C916   1.271       .  A
O912        C914   1.278       .  A
C913        O915   1.265       .  A
C913        C988   1.490       .  S
C914        C976   1.478       .  S
C916       C1096   1.478       .  S
Fe917       O933   2.045       .  S
Fe917       O923   2.056       .  S
Fe917       O930   2.051       .  S
Fe917       O922   2.062       .  S
Fe917       O928   1.967       .  S
Fe918       O921   2.098       .  S
Fe918       O925   2.095       .  S
Fe918       O929   2.104       .  S
Fe918       O934   2.089       .  S
Fe918       O928   1.974       .  S
Fe919       O937   2.061       .  S
Fe919       O924   2.043       .  S
Fe919       O931   2.057       .  S
Fe919       O920   2.051       .  S
Fe919       O928   1.961       .  S
O920        C927   1.270       .  A
O921        C935   1.279       .  A
O922        C927   1.268       .  A
O923        C926   1.267       .  A
O924        C936   1.263       .  A
O925        C938   1.274       .  A
C926        O931   1.263       .  A
C926       C1000   1.472       .  S
C927       C1381   1.460       .  S
O929        C932   1.276       .  A
O930        C932   1.267       .  A
C932       C1036   1.496       .  S
O933        C938   1.266       .  A
O934        C936   1.271       .  A
C935        O937   1.272       .  A
C935       C1060   1.504       .  S
C936       C1192   1.484       .  S
C938       C1300   1.484       .  S
Fe939       O955   2.039   1_556  S
Fe939       O945   2.071       .  S
Fe939       O952   2.082       .  S
Fe939       O944   2.043       .  S
Fe939       O950   1.950       .  S
Fe940       O943   2.076       .  S
Fe940       O947   2.122       .  S
Fe940       O951   2.080       .  S
Fe940       O956   2.107   1_554  S
Fe940       O950   1.952   1_554  S
Fe941       O959   2.093       .  S
Fe941       O946   2.041       .  S
Fe941       O953   2.045       .  S
Fe941       O942   2.078       .  S
Fe941       O950   1.947       .  S
O942        C949   1.273       .  A
O943        C957   1.274       .  A
O944        C949   1.266       .  A
O945        C948   1.271       .  A
O946        C958   1.265       .  A
O947        C960   1.281       .  A
C948        O953   1.265       .  A
C948       C1153   1.466       .  S
C949       C1228   1.457       .  S
O951        C954   1.270   1_554  A
O952        C954   1.271       .  A
C954       C1285   1.507       .  S
O955        C960   1.266       .  A
O956        C958   1.277       .  A
C957        O959   1.276   1_554  A
C957       C1336   1.499       .  S
C958       C1048   1.492       .  S
C960        C964   1.481       .  S
C961        C962   1.406       .  A
C961        C966   1.416   1_455  A
C962       C2355   1.402   1_455  A
C962        H967   1.085       .  S
C963       C2354   1.402       .  A
C963        C964   1.411       .  A
C963        C970   1.445       .  S
C964        C965   1.404       .  A
C965       C2358   1.409       .  A
C965        H968   1.084       .  S
C966       C2357   1.409       .  A
C966        C969   1.443   1_655  S
C969        N971   1.157       .  T
C970        N972   1.157       .  T
C973        C974   1.405       .  A
C973        C978   1.430       .  A
C974        C975   1.405       .  A
C974        H979   1.084       .  S
C975        C976   1.413       .  A
C975        C982   1.442       .  S
C976        C977   1.394       .  A
C977        C978   1.398       .  A
C977        H980   1.086       .  S
C978        C981   1.446       .  S
C981        N983   1.158       .  T
C982        N984   1.156       .  T
C985        C986   1.407       .  A
C985        C990   1.411       .  A
C986        C987   1.399       .  A
C986        H991   1.085       .  S
C987        C988   1.414       .  A
C987        C994   1.444       .  S
C988        C989   1.411       .  A
C989        C990   1.397       .  A
C989        H992   1.084       .  S
C990        C993   1.445       .  S
C993        N995   1.158       .  T
C994        N996   1.157       .  T
C997       C1002   1.414   1_565  A
C998        C999   1.404       .  A
C998       H1003   1.085       .  S
C999       C1000   1.410       .  A
C999       C1006   1.441       .  S
C1000      C1001   1.400       .  A
C1002      C1005   1.446   1_545  S
C1005      N1007   1.157       .  T
C1006      N1008   1.157       .  T
C1009      C1010   1.401       .  A
C1009      C1014   1.420       .  A
C1010      C1011   1.401       .  A
C1010      H1015   1.085       .  S
C1011      C1012   1.415       .  A
C1011      C1018   1.444       .  S
C1012      C1013   1.400       .  A
C1013      C1014   1.404       .  A
C1013      H1016   1.085       .  S
C1014      C1017   1.445       .  S
C1017      N1019   1.157       .  T
C1018      N1020   1.157       .  T
C1021      C1022   1.404       .  A
C1021      C1026   1.396       .  A
C1022      C1023   1.402       .  A
C1022      H1027   1.085       .  S
C1023      C1024   1.411       .  A
C1023      C1030   1.444       .  S
C1024      C1025   1.410       .  A
C1025      C1026   1.388       .  A
C1025      H1028   1.084       .  S
C1026      C1029   1.446       .  S
C1029      N1031   1.157       .  T
C1030      N1032   1.158       .  T
C1033      C1034   1.405       .  A
C1033      C1038   1.409       .  A
C1034      C1035   1.408       .  A
C1034      H1039   1.085       .  S
C1035      C2428   1.417   1_455  A
C1035      C1042   1.443   1_455  S
C1036      C2427   1.417       .  A
C1036      C1037   1.409       .  A
C1037      C2430   1.403       .  A
C1037      H1040   1.085       .  S
C1038      C2429   1.403   1_455  A
C1038      C1041   1.444       .  S
C1041      N2435   1.157       .  T
C1042      N1044   1.157       .  T
N1043      C2433   1.157       .  T
C1045      C1046   1.412       .  A
C1045      C1050   1.413       .  A
C1046      C1047   1.403       .  A
C1046      H1051   1.085       .  S
C1047      C1048   1.412       .  A
C1047      C1054   1.444   1_556  S
C1048      C1049   1.410       .  A
C1049      C1050   1.403       .  A
C1049      H1052   1.085       .  S
C1050      C1053   1.444       .  S
C1053      N1055   1.157       .  T
C1054      N1056   1.157       .  T
C1057      C1058   1.402       .  A
C1057      C1062   1.413       .  A
C1058      C1059   1.405       .  A
C1058      H1063   1.085       .  S
C1059      C1060   1.423       .  A
C1059      C1066   1.443       .  S
C1060      C1061   1.409       .  A
C1061      C1062   1.403       .  A
C1061      H1064   1.084       .  S
C1062      C1065   1.443       .  S
C1065      N1067   1.157       .  T
C1066      N1068   1.157       .  T
C1069      C1070   1.403       .  A
C1069      C1074   1.411       .  A
C1070      C1071   1.407       .  A
C1070      H1075   1.085       .  S
C1071      C1072   1.418       .  A
C1071      C1078   1.443       .  S
C1072      C1073   1.410       .  A
C1073      C1074   1.406       .  A
C1073      H1076   1.085       .  S
C1074      C1077   1.444       .  S
C1077      N1079   1.157       .  T
C1078      N1080   1.157       .  T
C1081      C1082   1.410   1_556  A
C1081      C1086   1.403       .  A
C1082      C1083   1.403       .  A
C1082      H1087   1.085       .  S
C1083      C1090   1.443       .  S
C1084      C1085   1.405   1_554  A
C1085      H1088   1.081       .  S
C1086      C1089   1.445       .  S
C1090      N1092   1.157       .  T
C1093      C1094   1.408       .  A
C1093      C1098   1.421       .  A
C1094      H1099   1.085       .  S
C1095      C1096   1.410       .  A
C1095      C1102   1.445       .  S
C1096      C1097   1.401       .  A
C1097      H1100   1.085       .  S
C1098      C1101   1.444       .  S
C1101      N1103   1.157       .  T
C1102      N1104   1.157       .  T
C1105      C1106   1.403       .  A
C1105      C1110   1.402       .  A
C1106      C1107   1.399       .  A
C1106      H1111   1.085       .  S
C1107      C1108   1.408       .  A
C1107      C1114   1.444       .  S
C1108      C1109   1.403       .  A
C1109      C1110   1.394       .  A
C1109      H1112   1.084       .  S
C1110      C1113   1.444       .  S
C1113      N1115   1.157   1_554  T
C1114      N1116   1.157       .  T
C1117      C1118   1.408       .  A
C1117      C1122   1.399       .  A
C1118      C1119   1.402       .  A
C1118      H1123   1.084       .  S
C1119      C1120   1.402       .  A
C1119      C1126   1.442       .  S
C1120      C1121   1.407       .  A
C1121      C1122   1.394       .  A
C1121      H1124   1.079       .  S
C1122      C1125   1.443       .  S
C1125      N1127   1.157       .  T
C1126      N1128   1.157       .  T
C1129      C1130   1.403       .  A
C1129      C1134   1.407       .  A
C1130      C1131   1.405       .  A
C1130      H1135   1.085       .  S
C1131      C1132   1.418       .  A
C1131      C1138   1.444       .  S
C1132      C1133   1.409       .  A
C1133      C1134   1.402       .  A
C1133      H1136   1.085       .  S
C1134      C1137   1.443       .  S
C1137      N1139   1.157       .  T
C1138      N1140   1.158       .  T
C1141      C1142   1.407       .  A
C1141      C1146   1.411       .  A
C1142      C1143   1.398       .  A
C1142      H1147   1.085       .  S
C1143      C1144   1.415       .  A
C1143      C1150   1.445       .  S
C1144      C1145   1.411       .  A
C1145      C1146   1.397       .  A
C1145      H1148   1.084       .  S
C1146      C1149   1.445       .  S
C1149      N1151   1.157       .  T
C1150      N1152   1.157       .  T
C1153      C1154   1.411       .  A
C1153      C1158   1.403       .  A
C1154      C2547   1.405       .  A
C1154      H1159   1.083       .  S
C1155      C2546   1.405       .  A
C1155      C1156   1.404   1_655  A
C1155      C1162   1.443       .  S
C1156      C1157   1.404       .  A
C1157      C2550   1.392       .  A
C1157      H1160   1.084       .  S
C1158      C2549   1.392       .  A
C1158      C1161   1.445       .  S
C1161      N1163   1.157       .  T
C1162      N1164   1.157       .  T
C1165      C1166   1.409   1_565  A
C1166      H1171   1.085   1_545  S
C1167      C1168   1.408       .  A
C1167      C1174   1.443       .  S
C1168      C1169   1.402       .  A
C1169      C1170   1.406       .  A
C1169      H1172   1.085       .  S
C1173      N1175   1.158       .  T
C1174      N1176   1.157       .  T
C1177      C1178   1.401       .  A
C1177      C1182   1.413       .  A
C1178      C1179   1.377       .  A
C1178      H1183   1.087       .  S
C1179      C1180   1.416       .  A
C1179      C1186   1.449       .  S
C1180      C1181   1.407       .  A
C1181      C1182   1.406       .  A
C1181      H1184   1.087       .  S
C1182      C1185   1.442       .  S
C1185      N1187   1.157       .  T
C1186      N1188   1.158       .  T
C1189      C1190   1.412       .  A
C1189      C1194   1.412       .  A
C1190      C1191   1.406       .  A
C1190      H1195   1.084       .  S
C1191      C1192   1.408       .  A
C1191      C1198   1.443       .  S
C1192      C1193   1.407       .  A
C1193      C1194   1.401       .  A
C1193      H1196   1.084       .  S
C1194      C1197   1.444       .  S
C1197      N1199   1.157       .  T
C1198      N1200   1.157       .  T
C1201      C1202   1.406       .  A
C1201      C1206   1.421       .  A
C1202      C1203   1.401       .  A
C1202      H1207   1.085       .  S
C1203      C1204   1.420       .  A
C1203      C1210   1.445       .  S
C1204      C1205   1.407       .  A
C1205      C1206   1.403       .  A
C1205      H1208   1.085       .  S
C1206      C1209   1.445       .  S
C1209      N1211   1.158       .  T
C1210      N1212   1.157       .  T
C1213      C1214   1.399       .  A
C1213      C1218   1.409       .  A
C1214      C2607   1.401   1_455  A
C1214      H1219   1.085       .  S
C1215      C2606   1.401       .  A
C1215      C1216   1.422       .  A
C1215      C1222   1.444       .  S
C1216      C1217   1.409       .  A
C1217      C2610   1.403       .  A
C1217      H1220   1.084       .  S
C1218      C2609   1.403   1_455  A
C1218      C1221   1.442       .  S
C1221      N1223   1.157       .  T
C1222      N1224   1.157       .  T
C1225      C1226   1.404       .  A
C1225      C1230   1.404       .  A
C1226      C1227   1.395       .  A
C1226      H1231   1.085       .  S
C1227      C1228   1.402       .  A
C1227      C1234   1.444       .  S
C1228      C1229   1.405       .  A
C1229      C1230   1.397       .  A
C1229      H1232   1.085       .  S
C1230      C1233   1.444       .  S
C1233      N1235   1.158       .  T
C1234      N1236   1.157       .  T
C1237      C1238   1.403       .  A
C1237      C1242   1.409       .  A
C1238      C1239   1.407       .  A
C1238      H1243   1.085       .  S
C1239      C1240   1.416       .  A
C1239      C1246   1.443       .  S
C1240      C1241   1.407       .  A
C1241      C1242   1.399       .  A
C1241      H1244   1.085       .  S
C1242      C1245   1.445       .  S
C1245      N1247   1.157       .  T
C1246      N1248   1.157       .  T
C1249      C1250   1.411       .  A
C1249      C1254   1.411       .  A
C1250      C1251   1.404       .  A
C1250      H1255   1.088       .  S
C1251      C1252   1.410       .  A
C1251      C1258   1.443       .  S
C1252      C1253   1.411       .  A
C1253      C1254   1.403       .  A
C1253      H1256   1.085       .  S
C1254      C1257   1.444       .  S
C1257      N1259   1.157       .  T
C1258      N1260   1.157       .  T
C1261      C1262   1.409       .  A
C1261      C1266   1.418       .  A
C1262      C1263   1.403       .  A
C1262      H1267   1.084   1_556  S
C1263      C1264   1.416       .  A
C1263      C1270   1.445       .  S
C1264      C1265   1.408       .  A
C1265      C1266   1.403       .  A
C1265      H1268   1.085       .  S
C1266      C1269   1.445       .  S
C1269      N1271   1.157       .  T
C1270      N1272   1.157   1_556  T
C1273      C1274   1.409       .  A
C1273      C1278   1.406       .  A
C1274      C1275   1.405       .  A
C1274      H1279   1.085       .  S
C1275      C1276   1.406       .  A
C1275      C1282   1.442       .  S
C1276      C1277   1.405       .  A
C1277      C1278   1.393       .  A
C1277      H1280   1.083       .  S
C1278      C1281   1.446       .  S
C1281      N1283   1.157       .  T
C1282      N1284   1.157       .  T
C1285      C1286   1.411       .  A
C1285      C1290   1.423       .  A
C1286      C1287   1.402       .  A
C1286      H1291   1.084       .  S
C1287      C1288   1.409       .  A
C1287      C1294   1.445       .  S
C1288      C1289   1.403       .  A
C1289      C1290   1.411       .  A
C1289      H1292   1.085       .  S
C1290      C1293   1.443   1_556  S
C1293      N1295   1.157       .  T
C1294      N1296   1.157       .  T
C1297      C1302   1.420   1_565  A
C1298      C1299   1.399       .  A
C1299      C1300   1.410       .  A
C1299      C1306   1.446       .  S
C1300      C1301   1.404       .  A
C1301      H1304   1.085       .  S
C1302      C1305   1.443       .  S
C1305      N1307   1.157       .  T
C1306      N1308   1.157       .  T
C1309      C1310   1.399       .  A
C1309      C1314   1.411       .  A
C1310      C1311   1.390       .  A
C1310      H1315   1.085       .  S
C1311      C1312   1.413       .  A
C1311      C1318   1.446       .  S
C1312      C1313   1.404       .  A
C1313      C1314   1.402       .  A
C1313      H1316   1.085       .  S
C1314      C1317   1.443       .  S
C1317      N1319   1.157       .  T
C1318      N1320   1.157       .  T
C1321      C1322   1.402       .  A
C1321      C1326   1.421       .  A
C1322      C1323   1.402       .  A
C1322      H1327   1.085       .  S
C1323      C1324   1.419       .  A
C1323      C1330   1.446       .  S
C1324      C1325   1.400       .  A
C1325      C1326   1.402       .  A
C1325      H1328   1.085       .  S
C1326      C1329   1.445       .  S
C1329      N1331   1.157       .  T
C1330      N1332   1.157       .  T
C1333      C1334   1.407       .  A
C1333      C1338   1.421       .  A
C1334      C1335   1.407       .  A
C1334      H1339   1.084       .  S
C1335      C1336   1.416       .  A
C1335      C1342   1.443   1_554  S
C1336      C1337   1.405       .  A
C1337      C1338   1.406       .  A
C1337      H1340   1.084       .  S
C1338      C1341   1.445       .  S
C1341      N1343   1.157       .  T
C1342      N1344   1.157       .  T
C1345      C1346   1.407       .  A
C1345      C1350   1.416       .  A
C1346      C1347   1.415       .  A
C1346      H1351   1.084       .  S
C1347      C2740   1.422       .  A
C1347      C1354   1.443   1_554  S
C1348      C2739   1.422       .  A
C1348      C1349   1.406       .  A
C1349      C2742   1.401   1_455  A
C1349      H1352   1.085       .  S
C1350      C2741   1.401       .  A
C1350      C1353   1.443       .  S
C1353      N2747   1.156       .  T
C1354      N1356   1.157       .  T
N1355      C2745   1.156       .  T
C1357      C2750   1.412       .  A
C1357      C1362   1.408       .  A
C1358      C2749   1.412       .  A
C1358      C1359   1.411       .  A
C1358      H1363   1.084       .  S
C1359      C1360   1.408   1_655  A
C1359      C1366   1.442       .  S
C1360      C2753   1.403       .  A
C1361      C2752   1.403       .  A
C1361      C1362   1.384       .  A
C1361      H1364   1.082       .  S
C1362      C1365   1.449       .  S
C1365      N1367   1.158       .  T
C1366      N1368   1.157       .  T
C1369      C1370   1.407       .  A
C1369      C1374   1.419       .  A
C1370      H1375   1.085       .  S
C1371      C1372   1.414       .  A
C1371      C1378   1.443       .  S
C1373      C1374   1.404       .  A
C1373      H1376   1.085       .  S
C1374      C1377   1.442       .  S
C1377      N1379   1.156       .  T
C1378      N1380   1.157       .  T
C1381      C1382   1.404       .  A
C1381      C1386   1.403       .  A
C1382      C1383   1.398       .  A
C1382      H1387   1.082       .  S
C1383      C1384   1.409       .  A
C1383      C1390   1.444       .  S
C1384      C1385   1.408       .  A
C1385      C1386   1.391       .  A
C1385      H1388   1.085       .  S
C1386      C1389   1.445       .  S
C1389      N1391   1.157       .  T
C1390      N1392   1.158       .  T
Fe1393     O1409   2.042       .  S
Fe1393     O1399   2.031       .  S
Fe1393     O1406   2.044       .  S
Fe1393     O1398   2.053       .  S
Fe1393     O1404   1.960       .  S
Fe1394     O1397   2.090       .  S
Fe1394     O1401   2.132       .  S
Fe1394     O1405   2.104       .  S
Fe1394     O1410   2.108       .  S
Fe1394     O1404   1.967       .  S
Fe1395     O1413   2.061       .  S
Fe1395     O1400   2.040       .  S
Fe1395     O1407   2.062       .  S
Fe1395     O1396   2.052       .  S
Fe1395     O1404   1.970       .  S
O1396      C1403   1.267       .  A
O1397      C1411   1.272       .  A
O1398      C1403   1.267       .  A
O1399      C1402   1.265       .  A
O1400      C1412   1.269       .  A
O1401      C1414   1.286       .  A
C1402      O1407   1.267       .  A
C1402      C2053   1.474       .  S
C1403      C2080   1.468       .  S
O1405      C1408   1.271       .  A
O1406      C1408   1.260       .  A
C1408      C2065   1.499       .  S
O1409      C1414   1.269       .  A
O1410      C1412   1.282       .  A
C1411      O1413   1.265       .  A
C1411      C2029   1.503       .  S
C1412      C2020   1.485       .  S
C1414      C2041   1.497       .  S
Fe1415     O1431   2.040       .  S
Fe1415     O1421   2.063       .  S
Fe1415     O1428   2.064       .  S
Fe1415     O1420   2.059       .  S
Fe1415     O1426   1.963       .  S
Fe1416     O1419   2.073       .  S
Fe1416     O1423   2.129       .  S
Fe1416     O1427   2.083       .  S
Fe1416     O1432   2.113       .  S
Fe1416     O1426   1.957       .  S
Fe1417     O1435   2.065       .  S
Fe1417     O1422   2.034       .  S
Fe1417     O1429   2.057       .  S
Fe1417     O1418   2.065       .  S
Fe1417     O1426   1.948       .  S
O1418      C1425   1.275       .  A
O1419      C1433   1.271       .  A
O1420      C1425   1.273       .  A
O1421      C1424   1.264       .  A
O1422      C1434   1.265       .  A
O1423      C1436   1.287       .  A
C1424      O1429   1.261       .  A
C1424      C1972   1.470       .  S
C1425      C2005   1.466       .  S
O1427      C1430   1.267       .  A
O1428      C1430   1.264       .  A
C1430      C1993   1.502       .  S
O1431      C1436   1.273       .  A
O1432      C1434   1.279       .  A
C1433      O1435   1.270       .  A
C1433      C1960   1.497       .  S
C1434      C1948   1.490       .  S
C1436      C1984   1.484       .  S
Fe1437     O1453   2.028       .  S
Fe1437     O1443   2.059       .  S
Fe1437     O1450   2.063       .  S
Fe1437     O1442   2.048       .  S
Fe1437     O1448   1.955       .  S
Fe1438     O1441   2.069       .  S
Fe1438     O1445   2.117       .  S
Fe1438     O1449   2.077       .  S
Fe1438     O1454   2.102       .  S
Fe1438     O1448   1.954       .  S
Fe1439     O1457   2.073       .  S
Fe1439     O1444   2.048       .  S
Fe1439     O1451   2.052       .  S
Fe1439     O1440   2.066       .  S
Fe1439     O1448   1.951       .  S
O1440      C1447   1.271       .  A
O1441      C1455   1.272       .  A
O1442      C1447   1.267       .  A
O1443      C1446   1.268       .  A
O1444      C1456   1.267       .  A
O1445      C1458   1.280       .  A
C1446      O1451   1.266       .  A
C1446      C1969   1.468       .  S
C1447      C1921   1.457       .  S
O1449      C1452   1.270       .  A
O1450      C1452   1.264       .  A
C1452      C1912   1.498       .  S
O1453      C1458   1.266       .  A
O1454      C1456   1.277       .  A
C1455      O1457   1.270       .  A
C1455      C1897   1.499       .  S
C1456      C1885   1.491       .  S
C1458      C1933   1.475       .  S
Fe1459     O1475   2.046       .  S
Fe1459     O1465   2.075       .  S
Fe1459     O1472   2.072       .  S
Fe1459     O1464   2.066       .  S
Fe1459     O1470   1.966       .  S
Fe1460     O1463   2.065       .  S
Fe1460     O1467   2.108       .  S
Fe1460     O1471   2.064       .  S
Fe1460     O1476   2.107       .  S
Fe1460     O1470   1.955       .  S
Fe1461     O1479   2.045       .  S
Fe1461     O1466   2.040       .  S
Fe1461     O1473   2.053       .  S
Fe1461     O1462   2.029       .  S
Fe1461     O1470   1.942       .  S
O1462      C1469   1.267       .  A
O1463      C1477   1.268       .  A
O1464      C1469   1.269       .  A
O1465      C1468   1.269       .  A
O1466      C1478   1.266       .  A
O1467      C1480   1.280       .  A
C1468      O1473   1.264       .  A
C1468      C1852   1.468       .  S
C1469      C1873   1.475       .  S
O1471      C1474   1.266       .  A
O1472      C1474   1.268       .  A
C1474      C1861   1.497       .  S
O1475      C1480   1.271       .  A
O1476      C1478   1.278       .  A
C1477      O1479   1.265       .  A
C1477      C1840   1.489       .  S
C1478      C1945   1.491       .  S
C1480      C1909   1.477       .  S
Fe1481     O1497   2.038       .  S
Fe1481     O1487   2.074       .  S
Fe1481     O1494   2.076       .  S
Fe1481     O1486   2.052       .  S
Fe1481     O1492   1.949       .  S
Fe1482     O1485   2.071       .  S
Fe1482     O1489   2.120       .  S
Fe1482     O1493   2.073       .  S
Fe1482     O1498   2.107       .  S
Fe1482     O1492   1.949       .  S
Fe1483     O1501   2.072       .  S
Fe1483     O1488   2.030       .  S
Fe1483     O1495   2.036       .  S
Fe1483     O1484   2.077       .  S
Fe1483     O1492   1.941       .  S
O1484      C1491   1.274       .  A
O1485      C1499   1.273       .  A
O1486      C1491   1.269       .  A
O1487      C1490   1.270       .  A
O1488      C1500   1.263       .  A
O1489      C1502   1.281       .  A
C1490      O1495   1.260       .  A
C1490      C1813   1.461       .  S
C1491      C1804   1.462       .  S
O1493      C1496   1.269       .  A
O1494      C1496   1.267       .  A
C1496      C1789   1.498       .  S
O1497      C1502   1.269       .  A
O1498      C1500   1.278       .  A
C1499      O1501   1.271       .  A
C1499      C1900   1.499       .  S
C1500      C2017   1.489       .  S
C1502      C1825   1.476       .  S
Fe1503     O1519   2.040       .  S
Fe1503     O1509   2.074       .  S
Fe1503     O1516   2.082       .  S
Fe1503     O1508   2.043       .  S
Fe1503     O1514   1.960       .  S
Fe1504     O1507   2.068       .  S
Fe1504     O1511   2.112       .  S
Fe1504     O1515   2.074       .  S
Fe1504     O1520   2.104       .  S
Fe1504     O1514   1.958       .  S
Fe1505     O1523   2.077       .  S
Fe1505     O1510   2.045       .  S
Fe1505     O1517   2.043       .  S
Fe1505     O1506   2.073       .  S
Fe1505     O1514   1.959       .  S
O1506      C1513   1.269       .  A
O1507      C1521   1.269       .  A
O1508      C1513   1.265       .  A
O1509      C1512   1.272       .  A
O1510      C1522   1.268       .  A
O1511      C1524   1.279       .  A
C1512      O1517   1.265       .  A
C1512      C1777   1.465       .  S
C1513      C1801   1.458   1_556  S
O1515      C1518   1.269       .  A
O1516      C1518   1.270       .  A
C1518      C1768   1.501       .  S
O1519      C1524   1.267       .  A
O1520      C1522   1.279       .  A
C1521      O1523   1.270       .  A
C1521      C1753   1.490       .  S
C1522      C1741   1.495       .  S
C1524      C1864   1.479       .  S
Fe1525     O1541   2.052       .  S
Fe1525     O1531   2.055       .  S
Fe1525     O1538   2.055       .  S
Fe1525     O1530   2.072       .  S
Fe1525     O1536   1.970       .  S
Fe1526     O1529   2.064       .  S
Fe1526     O1533   2.108       .  S
Fe1526     O1537   2.073       .  S
Fe1526     O1542   2.095       .  S
Fe1526     O1536   1.969       .  S
Fe1527     O1545   2.045       .  S
Fe1527     O1532   2.047       .  S
Fe1527     O1539   2.058       .  S
Fe1527     O1528   2.039       .  S
Fe1527     O1536   1.964       .  S
O1528      C1535   1.267       .  A
O1529      C1543   1.267       .  A
O1530      C1535   1.272       .  A
O1531      C1534   1.267       .  A
O1532      C1544   1.268       .  A
O1533      C1546   1.280       .  A
C1534      O1539   1.265       .  A
C1534      C2056   1.477       .  S
C1535      C1720   1.475       .  S
O1537      C1540   1.265       .  A
O1538      C1540   1.263       .  A
C1540      C1828   1.494       .  S
O1541      C1546   1.272       .  A
O1542      C1544   1.277       .  A
C1543      O1545   1.264       .  A
C1543      C1837   1.482       .  S
C1544      C1705   1.487       .  S
C1546      C1729   1.483       .  S
Fe1547     O1563   2.065       .  S
Fe1547     O1553   2.048       .  S
Fe1547     O1560   2.043       .  S
Fe1547     O1552   2.081       .  S
Fe1547     O1558   1.952       .  S
Fe1548     O1551   2.091       .  S
Fe1548     O1555   2.091       .  S
Fe1548     O1559   2.104       .  S
Fe1548     O1564   2.088       .  S
Fe1548     O1558   1.958       .  S
Fe1549     O1567   2.039       .  S
Fe1549     O1554   2.049       .  S
Fe1549     O1561   2.061       .  S
Fe1549     O1550   2.039       .  S
Fe1549     O1558   1.956       .  S
O1550      C1557   1.269       .  A
O1551      C1565   1.277       .  A
O1552      C1557   1.271       .  A
O1553      C1556   1.264       .  A
O1554      C1566   1.264       .  A
O1555      C1568   1.272       .  A
C1556      O1561   1.263       .  A
C1556      C1693   1.476       .  S
C1557      C2008   1.470       .  S
O1559      C1562   1.278       .  A
O1560      C1562   1.269       .  A
C1562      C1936   1.490       .  S
O1563      C1568   1.268       .  A
O1564      C1566   1.272       .  A
C1565      O1567   1.269       .  A
C1565      C1681   1.483       .  S
C1566      C1708   1.478       .  S
C1568      C2068   1.486       .  S
Fe1569     O1585   2.032   1_554  S
Fe1569     O1575   2.086       .  S
Fe1569     O1582   2.086       .  S
Fe1569     O1574   2.034       .  S
Fe1569     O1580   1.959       .  S
Fe1570     O1573   2.072       .  S
Fe1570     O1577   2.141       .  S
Fe1570     O1581   2.080   1_556  S
Fe1570     O1586   2.124   1_556  S
Fe1570     O1580   1.946   1_556  S
Fe1571     O1589   2.072       .  S
Fe1571     O1576   2.018       .  S
Fe1571     O1583   2.036       .  S
Fe1571     O1572   2.087       .  S
Fe1571     O1580   1.938       .  S
O1572      C1579   1.279       .  A
O1573      C1587   1.271       .  A
O1574      C1579   1.268       .  A
O1575      C1578   1.267       .  A
O1576      C1588   1.260       .  A
O1577      C1590   1.289       .  A
C1578      O1583   1.255       .  A
C1578      C1816   1.467       .  S
C1579      C1717   1.454       .  S
O1581      C1584   1.266       .  A
O1582      C1584   1.270       .  A
C1584      C2044   1.507       .  S
O1585      C1590   1.270       .  A
O1586      C1588   1.282       .  A
C1587      O1589   1.272   1_556  A
C1587      C1957   1.500       .  S
C1588      C1669   1.498       .  S
C1590      C1765   1.482       .  S
Fe1591     O1607   2.045       .  S
Fe1591     O1597   2.073       .  S
Fe1591     O1604   2.078       .  S
Fe1591     O1596   2.069       .  S
Fe1591     O1602   1.962       .  S
Fe1592     O1595   2.069       .  S
Fe1592     O1599   2.115       .  S
Fe1592     O1603   2.070       .  S
Fe1592     O1608   2.103       .  S
Fe1592     O1602   1.947       .  S
Fe1593     O1611   2.047       .  S
Fe1593     O1598   2.038       .  S
Fe1593     O1605   2.051       .  S
Fe1593     O1594   2.031       .  S
Fe1593     O1602   1.934       .  S
O1594      C1601   1.265       .  A
O1595      C1609   1.270       .  A
O1596      C1601   1.273       .  A
O1597      C1600   1.269       .  A
O1598      C1610   1.265       .  A
O1599      C1612   1.283       .  A
C1600      O1605   1.263       .  A
C1600      C1780   1.467       .  S
C1601      C1876   1.472   1_554  S
O1603      C1606   1.267       .  A
O1604      C1606   1.267       .  A
C1606      C1657   1.492       .  S
O1607      C1612   1.270       .  A
O1608      C1610   1.278       .  A
C1609      O1611   1.266       .  A
C1609      C1684   1.490       .  S
C1610      C1672   1.478       .  S
C1612      C1792   1.478       .  S
Fe1613     O1629   2.045       .  S
Fe1613     O1619   2.056       .  S
Fe1613     O1626   2.051       .  S
Fe1613     O1618   2.061       .  S
Fe1613     O1624   1.967       .  S
Fe1614     O1617   2.098       .  S
Fe1614     O1621   2.095       .  S
Fe1614     O1625   2.104       .  S
Fe1614     O1630   2.090       .  S
Fe1614     O1624   1.973       .  S
Fe1615     O1633   2.061       .  S
Fe1615     O1620   2.043       .  S
Fe1615     O1627   2.057       .  S
Fe1615     O1616   2.051       .  S
Fe1615     O1624   1.961       .  S
O1616      C1623   1.270       .  A
O1617      C1631   1.279       .  A
O1618      C1623   1.268       .  A
O1619      C1622   1.267       .  A
O1620      C1632   1.263       .  A
O1621      C1634   1.274       .  A
C1622      O1627   1.263       .  A
C1622      C1696   1.472       .  S
C1623      C2077   1.460       .  S
O1625      C1628   1.276       .  A
O1626      C1628   1.267       .  A
C1628      C1732   1.496       .  S
O1629      C1634   1.266       .  A
O1630      C1632   1.271       .  A
C1631      O1633   1.272       .  A
C1631      C1756   1.504       .  S
C1632      C1888   1.485       .  S
C1634      C1996   1.484       .  S
Fe1635     O1651   2.039   1_556  S
Fe1635     O1641   2.071       .  S
Fe1635     O1648   2.083       .  S
Fe1635     O1640   2.043       .  S
Fe1635     O1646   1.950       .  S
Fe1636     O1639   2.076       .  S
Fe1636     O1643   2.123       .  S
Fe1636     O1647   2.080       .  S
Fe1636     O1652   2.107   1_554  S
Fe1636     O1646   1.951   1_554  S
Fe1637     O1655   2.093       .  S
Fe1637     O1642   2.041       .  S
Fe1637     O1649   2.045       .  S
Fe1637     O1638   2.078       .  S
Fe1637     O1646   1.947       .  S
O1638      C1645   1.273       .  A
O1639      C1653   1.274       .  A
O1640      C1645   1.266       .  A
O1641      C1644   1.271       .  A
O1642      C1654   1.265       .  A
O1643      C1656   1.281       .  A
C1644      O1649   1.265       .  A
C1644      C1849   1.466       .  S
C1645      C1924   1.457       .  S
O1647      C1650   1.270   1_554  A
O1648      C1650   1.271       .  A
C1650      C1981   1.507       .  S
O1651      C1656   1.266       .  A
O1652      C1654   1.277       .  A
C1653      O1655   1.276   1_554  A
C1653      C2032   1.499       .  S
C1654      C1744   1.492       .  S
C1656      C1660   1.481       .  S
C1657      C1658   1.406       .  A
C1657      C1662   1.416       .  A
C1658      H1663   1.085       .  S
C1659      C1660   1.411       .  A
C1659      C1666   1.445       .  S
C1660      C1661   1.404       .  A
C1661      H1664   1.084       .  S
C1662      C1665   1.444       .  S
C1665      N1667   1.157       .  T
C1666      N1668   1.157       .  T
C1669      C1670   1.405       .  A
C1669      C1674   1.430       .  A
C1670      C1671   1.405       .  A
C1670      H1675   1.084       .  S
C1671      C1672   1.413       .  A
C1671      C1678   1.442       .  S
C1672      C1673   1.394       .  A
C1673      C1674   1.398       .  A
C1673      H1676   1.086       .  S
C1674      C1677   1.446       .  S
C1677      N1679   1.158       .  T
C1678      N1680   1.157       .  T
C1681      C1682   1.407       .  A
C1681      C1686   1.411       .  A
C1682      C1683   1.398       .  A
C1682      H1687   1.085       .  S
C1683      C1684   1.414       .  A
C1683      C1690   1.444       .  S
C1684      C1685   1.411       .  A
C1685      C1686   1.398       .  A
C1685      H1688   1.084       .  S
C1686      C1689   1.445       .  S
C1689      N1691   1.158       .  T
C1690      N1692   1.157       .  T
C1693      C2390   1.407       .  A
C1693      C1698   1.414       .  A
C1694      C2389   1.407       .  A
C1694      C1695   1.404   1_565  A
C1694      H1699   1.085       .  S
C1695      C1696   1.410       .  A
C1695      C1702   1.441       .  S
C1696      C1697   1.400       .  A
C1697      C2394   1.393       .  A
C1697      H2396   1.086       .  S
C1698      C2393   1.393       .  A
C1698      C1701   1.446       .  S
H1700      C2393   1.086       .  S
C1701      N1703   1.157       .  T
C1702      N1704   1.157       .  T
C1705      C1706   1.401       .  A
C1705      C1710   1.420       .  A
C1706      C1707   1.401       .  A
C1706      H1711   1.085       .  S
C1707      C1708   1.415       .  A
C1707      C1714   1.444       .  S
C1708      C1709   1.400       .  A
C1709      C1710   1.404       .  A
C1709      H1712   1.085       .  S
C1710      C1713   1.445       .  S
C1713      N1715   1.157       .  T
C1714      N1716   1.157       .  T
C1717      C1718   1.404       .  A
C1717      C1722   1.396       .  A
C1718      C1719   1.402       .  A
C1718      H1723   1.085       .  S
C1719      C1720   1.411       .  A
C1719      C1726   1.444       .  S
C1720      C1721   1.410       .  A
C1721      C1722   1.387       .  A
C1721      H1724   1.084       .  S
C1722      C1725   1.446       .  S
C1725      N1727   1.157       .  T
C1726      N1728   1.158       .  T
C1729      C1730   1.405       .  A
C1729      C1734   1.409       .  A
C1730      C1731   1.408       .  A
C1730      H1735   1.085       .  S
C1731      C1738   1.443       .  S
C1732      C1733   1.409       .  A
C1733      H1736   1.085       .  S
C1734      C1737   1.444       .  S
C1738      N1740   1.157       .  T
C1741      C1742   1.412       .  A
C1741      C1746   1.413       .  A
C1742      C1743   1.403       .  A
C1742      H1747   1.085       .  S
C1743      C1744   1.412       .  A
C1743      C1750   1.444   1_556  S
C1744      C1745   1.410       .  A
C1745      C1746   1.403       .  A
C1745      H1748   1.085       .  S
C1746      C1749   1.444       .  S
C1749      N1751   1.157       .  T
C1750      N1752   1.157       .  T
C1753      C1754   1.402       .  A
C1753      C1758   1.413       .  A
C1754      C1755   1.404       .  A
C1754      H1759   1.085       .  S
C1755      C1756   1.423       .  A
C1755      C1762   1.443       .  S
C1756      C1757   1.409       .  A
C1757      C1758   1.403       .  A
C1757      H1760   1.084       .  S
C1758      C1761   1.443       .  S
C1761      N1763   1.157       .  T
C1762      N1764   1.157       .  T
C1765      C1766   1.403       .  A
C1765      C1770   1.411       .  A
C1766      C1767   1.407       .  A
C1766      H1771   1.085       .  S
C1767      C1768   1.418       .  A
C1767      C1774   1.443       .  S
C1768      C1769   1.410       .  A
C1769      C1770   1.406       .  A
C1769      H1772   1.085       .  S
C1770      C1773   1.444       .  S
C1773      N1775   1.157       .  T
C1774      N1776   1.157       .  T
C1777      C1778   1.410   1_556  A
C1777      C1782   1.403   1_545  A
C1778      C1779   1.403       .  A
C1778      H1783   1.085       .  S
C1779      C2476   1.402   1_545  A
C1779      C1786   1.443       .  S
C1780      C2475   1.403       .  A
C1780      C1781   1.405   1_554  A
C1781      C2478   1.392       .  A
C1781      H1784   1.081       .  S
C1782      C2477   1.392       .  A
C1782      C1785   1.445       .  S
C1785      N2483   1.157       .  T
C1786      N1788   1.157       .  T
N1787      C2481   1.157       .  T
C1789      C1790   1.408       .  A
C1789      C1794   1.421       .  A
C1790      C2487   1.402   1_545  A
C1790      H1795   1.085       .  S
C1791      C2486   1.402       .  A
C1791      C1792   1.410       .  A
C1791      C1798   1.445       .  S
C1792      C1793   1.401       .  A
C1793      C2490   1.407       .  A
C1793      H1796   1.085       .  S
C1794      C2489   1.407   1_545  A
C1794      C1797   1.444       .  S
C1797      N1799   1.157       .  T
C1798      N1800   1.157       .  T
C1801      C1802   1.403       .  A
C1801      C1806   1.402       .  A
C1802      C1803   1.399       .  A
C1802      H1807   1.085       .  S
C1803      C1804   1.408       .  A
C1803      C1810   1.444       .  S
C1804      C1805   1.403       .  A
C1805      C1806   1.394       .  A
C1805      H1808   1.084       .  S
C1806      C1809   1.444       .  S
C1809      N1811   1.157   1_554  T
C1810      N1812   1.157       .  T
C1813      C1814   1.408       .  A
C1813      C1818   1.399       .  A
C1814      C1815   1.402       .  A
C1814      H1819   1.084       .  S
C1815      C1816   1.402       .  A
C1815      C1822   1.442       .  S
C1816      C1817   1.407       .  A
C1817      C1818   1.394       .  A
C1817      H1820   1.079       .  S
C1818      C1821   1.443       .  S
C1821      N1823   1.157       .  T
C1822      N1824   1.157       .  T
C1825      C1826   1.403       .  A
C1825      C1830   1.407       .  A
C1826      C1827   1.405       .  A
C1826      H1831   1.085       .  S
C1827      C1828   1.419       .  A
C1827      C1834   1.444       .  S
C1828      C1829   1.409       .  A
C1829      C1830   1.402       .  A
C1829      H1832   1.085       .  S
C1830      C1833   1.444       .  S
C1833      N1835   1.157       .  T
C1834      N1836   1.158       .  T
C1837      C1838   1.407       .  A
C1837      C1842   1.411       .  A
C1838      C1839   1.398       .  A
C1838      H1843   1.085       .  S
C1839      C1840   1.415       .  A
C1839      C1846   1.445       .  S
C1840      C1841   1.411       .  A
C1841      C1842   1.397       .  A
C1841      H1844   1.084       .  S
C1842      C1845   1.445       .  S
C1845      N1847   1.157       .  T
C1846      N1848   1.157       .  T
C1849      C1850   1.411       .  A
C1849      C1854   1.403   1_655  A
C1850      H1855   1.084       .  S
C1851      C1852   1.403       .  A
C1851      C1858   1.443       .  S
C1852      C1853   1.405       .  A
C1853      H1856   1.077       .  S
C1854      C1857   1.445       .  S
C1857      N1859   1.157       .  T
C1858      N1860   1.157       .  T
C1861      C1862   1.408       .  A
C1861      C2562   1.421       .  A
C1862      C2559   1.402       .  A
C1862      H1867   1.085       .  S
C1863      C2558   1.401       .  A
C1863      C1864   1.408       .  A
C1863      C1870   1.443       .  S
C1864      C1865   1.402       .  A
C1865      C1866   1.406       .  A
C1865      H1868   1.085       .  S
C1866      C2557   1.421   1_545  A
C1866      C2565   1.445   1_545  S
C1869      C2562   1.445       .  S
C1869      N1871   1.158       .  T
C1870      N1872   1.157       .  T
C1873      C1874   1.401       .  A
C1873      C1878   1.413       .  A
C1874      C1875   1.377       .  A
C1874      H1879   1.087       .  S
C1875      C1876   1.416       .  A
C1875      C1882   1.449       .  S
C1876      C1877   1.407       .  A
C1877      C1878   1.406       .  A
C1877      H1880   1.087       .  S
C1878      C1881   1.442       .  S
C1881      N1883   1.157       .  T
C1882      N1884   1.158       .  T
C1885      C1886   1.412       .  A
C1885      C1890   1.412       .  A
C1886      C1887   1.406       .  A
C1886      H1891   1.084       .  S
C1887      C1888   1.408       .  A
C1887      C1894   1.443       .  S
C1888      C1889   1.407       .  A
C1889      C1890   1.401       .  A
C1889      H1892   1.084       .  S
C1890      C1893   1.444       .  S
C1893      N1895   1.157       .  T
C1894      N1896   1.157       .  T
C1897      C1898   1.406       .  A
C1897      C1902   1.421       .  A
C1898      C1899   1.401       .  A
C1898      H1903   1.085       .  S
C1899      C1900   1.420       .  A
C1899      C1906   1.445       .  S
C1900      C1901   1.407       .  A
C1901      C1902   1.403       .  A
C1901      H1904   1.085       .  S
C1902      C1905   1.445       .  S
C1905      N1907   1.158       .  T
C1906      N1908   1.157       .  T
C1909      C1910   1.399       .  A
C1909      C1914   1.410       .  A
C1910      H1915   1.085       .  S
C1911      C1912   1.422       .  A
C1911      C1918   1.444       .  S
C1912      C1913   1.409       .  A
C1913      H1916   1.084       .  S
C1914      C1917   1.442       .  S
C1917      N1919   1.157       .  T
C1918      N1920   1.157       .  T
C1921      C1922   1.404       .  A
C1921      C1926   1.404       .  A
C1922      C1923   1.395       .  A
C1922      H1927   1.085       .  S
C1923      C1924   1.402       .  A
C1923      C1930   1.444       .  S
C1924      C1925   1.405       .  A
C1925      C1926   1.397       .  A
C1925      H1928   1.085       .  S
C1926      C1929   1.444       .  S
C1929      N1931   1.158       .  T
C1930      N1932   1.157       .  T
C1933      C1934   1.403       .  A
C1933      C1938   1.409       .  A
C1934      C1935   1.407       .  A
C1934      H1939   1.085       .  S
C1935      C1936   1.416       .  A
C1935      C1942   1.443       .  S
C1936      C1937   1.407       .  A
C1937      C1938   1.398       .  A
C1937      H1940   1.085       .  S
C1938      C1941   1.445       .  S
C1941      N1943   1.157       .  T
C1942      N1944   1.157       .  T
C1945      C1946   1.411       .  A
C1945      C1950   1.411       .  A
C1946      C1947   1.404       .  A
C1946      H1951   1.088       .  S
C1947      C1948   1.410       .  A
C1947      C1954   1.443       .  S
C1948      C1949   1.411       .  A
C1949      C1950   1.403       .  A
C1949      H1952   1.085       .  S
C1950      C1953   1.444       .  S
C1953      N1955   1.157       .  T
C1954      N1956   1.157       .  T
C1957      C1958   1.409       .  A
C1957      C1962   1.418       .  A
C1958      C1959   1.403       .  A
C1958      H1963   1.084   1_556  S
C1959      C1960   1.416       .  A
C1959      C1966   1.445       .  S
C1960      C1961   1.408       .  A
C1961      C1962   1.402       .  A
C1961      H1964   1.085       .  S
C1962      C1965   1.445       .  S
C1965      N1967   1.157       .  T
C1966      N1968   1.157   1_556  T
C1969      C1970   1.409       .  A
C1969      C1974   1.406       .  A
C1970      C1971   1.405       .  A
C1970      H1975   1.085       .  S
C1971      C1972   1.406       .  A
C1971      C1978   1.442       .  S
C1972      C1973   1.404       .  A
C1973      C1974   1.393       .  A
C1973      H1976   1.083       .  S
C1974      C1977   1.446       .  S
C1977      N1979   1.157       .  T
C1978      N1980   1.157       .  T
C1981      C1982   1.411       .  A
C1981      C1986   1.423       .  A
C1982      C1983   1.402       .  A
C1982      H1987   1.084       .  S
C1983      C1984   1.409       .  A
C1983      C1990   1.445       .  S
C1984      C1985   1.403       .  A
C1985      C1986   1.411       .  A
C1985      H1988   1.085       .  S
C1986      C1989   1.444   1_556  S
C1989      N1991   1.157       .  T
C1990      N1992   1.157       .  T
C1993      C2690   1.410       .  A
C1993      C1998   1.420       .  A
C1994      C2689   1.410   1_545  A
C1994      C1995   1.399       .  A
C1994      H2695   1.085   1_545  S
C1995      C1996   1.411       .  A
C1995      C2002   1.446       .  S
C1996      C1997   1.404       .  A
C1997      C2694   1.409       .  A
C1997      H2000   1.085       .  S
C1998      C2693   1.409       .  A
C1998      C2001   1.443       .  S
H1999      C2690   1.085       .  S
C2001      N2003   1.157       .  T
C2002      N2004   1.157       .  T
C2005      C2006   1.399       .  A
C2005      C2010   1.411       .  A
C2006      C2007   1.390       .  A
C2006      H2011   1.085       .  S
C2007      C2008   1.413       .  A
C2007      C2014   1.446       .  S
C2008      C2009   1.404       .  A
C2009      C2010   1.402       .  A
C2009      H2012   1.085       .  S
C2010      C2013   1.443       .  S
C2013      N2015   1.157       .  T
C2014      N2016   1.157       .  T
C2017      C2018   1.402       .  A
C2017      C2022   1.421       .  A
C2018      C2019   1.402       .  A
C2018      H2023   1.085       .  S
C2019      C2020   1.419       .  A
C2019      C2026   1.446       .  S
C2020      C2021   1.400       .  A
C2021      C2022   1.402       .  A
C2021      H2024   1.085       .  S
C2022      C2025   1.445       .  S
C2025      N2027   1.157       .  T
C2026      N2028   1.157       .  T
C2029      C2030   1.407       .  A
C2029      C2034   1.421       .  A
C2030      C2031   1.407       .  A
C2030      H2035   1.084       .  S
C2031      C2032   1.416       .  A
C2031      C2038   1.442   1_554  S
C2032      C2033   1.405       .  A
C2033      C2034   1.406       .  A
C2033      H2036   1.084       .  S
C2034      C2037   1.445       .  S
C2037      N2039   1.157       .  T
C2038      N2040   1.157       .  T
C2041      C2042   1.407       .  A
C2041      C2046   1.415       .  A
C2042      C2043   1.415   1_655  A
C2042      H2047   1.084       .  S
C2043      C2050   1.443   1_554  S
C2044      C2045   1.406       .  A
C2045      H2048   1.085       .  S
C2046      C2049   1.443       .  S
C2050      N2052   1.157       .  T
C2053      C2058   1.409   1_655  A
C2054      C2055   1.411       .  A
C2054      H2059   1.084       .  S
C2055      C2056   1.409       .  A
C2055      C2062   1.442       .  S
C2057      C2058   1.384       .  A
C2057      H2060   1.082       .  S
C2058      C2061   1.449       .  S
C2061      N2063   1.158       .  T
C2062      N2064   1.157       .  T
C2065      C2066   1.407       .  A
C2065      C2070   1.419       .  A
C2066      C2763   1.409   1_545  A
C2066      H2071   1.085       .  S
C2067      C2762   1.409       .  A
C2067      C2068   1.414       .  A
C2067      C2074   1.443       .  S
C2068      C2765   1.401       .  A
C2069      C2764   1.401       .  A
C2069      C2070   1.403   1_565  A
C2069      H2072   1.085       .  S
C2070      C2073   1.442       .  S
C2073      N2075   1.156       .  T
C2074      N2076   1.157       .  T
C2077      C2078   1.404       .  A
C2077      C2082   1.403       .  A
C2078      C2079   1.398       .  A
C2078      H2083   1.082       .  S
C2079      C2080   1.408       .  A
C2079      C2086   1.445       .  S
C2080      C2081   1.407       .  A
C2081      C2082   1.391       .  A
C2081      H2084   1.085       .  S
C2082      C2085   1.445       .  S
C2085      N2087   1.157       .  T
C2086      N2088   1.158       .  T
Fe2089     O2105   2.042       .  S
Fe2089     O2095   2.031       .  S
Fe2089     O2102   2.045       .  S
Fe2089     O2094   2.053       .  S
Fe2089     O2100   1.960       .  S
Fe2090     O2093   2.090       .  S
Fe2090     O2097   2.132       .  S
Fe2090     O2101   2.103       .  S
Fe2090     O2106   2.108       .  S
Fe2090     O2100   1.967       .  S
Fe2091     O2109   2.062       .  S
Fe2091     O2096   2.041       .  S
Fe2091     O2103   2.062       .  S
Fe2091     O2092   2.052       .  S
Fe2091     O2100   1.970       .  S
O2092      C2099   1.267       .  A
O2093      C2107   1.272       .  A
O2094      C2099   1.267       .  A
O2095      C2098   1.265       .  A
O2096      C2108   1.269       .  A
O2097      C2110   1.286       .  A
C2098      O2103   1.267       .  A
C2098      C2749   1.474       .  S
C2099      C2776   1.468       .  S
O2101      C2104   1.271       .  A
O2102      C2104   1.260       .  A
C2104      C2761   1.498       .  S
O2105      C2110   1.269       .  A
O2106      C2108   1.282       .  A
C2107      O2109   1.265       .  A
C2107      C2725   1.503       .  S
C2108      C2716   1.485       .  S
C2110      C2737   1.497       .  S
Fe2111     O2127   2.041       .  S
Fe2111     O2117   2.064       .  S
Fe2111     O2124   2.064       .  S
Fe2111     O2116   2.059       .  S
Fe2111     O2122   1.963       .  S
Fe2112     O2115   2.073       .  S
Fe2112     O2119   2.129       .  S
Fe2112     O2123   2.083       .  S
Fe2112     O2128   2.113       .  S
Fe2112     O2122   1.957       .  S
Fe2113     O2131   2.066       .  S
Fe2113     O2118   2.034       .  S
Fe2113     O2125   2.058       .  S
Fe2113     O2114   2.065       .  S
Fe2113     O2122   1.948       .  S
O2114      C2121   1.275       .  A
O2115      C2129   1.271       .  A
O2116      C2121   1.274       .  A
O2117      C2120   1.264       .  A
O2118      C2130   1.265       .  A
O2119      C2132   1.287       .  A
C2120      O2125   1.261       .  A
C2120      C2668   1.471       .  S
C2121      C2701   1.466       .  S
O2123      C2126   1.267       .  A
O2124      C2126   1.264       .  A
C2126      C2689   1.502       .  S
O2127      C2132   1.273       .  A
O2128      C2130   1.279       .  A
C2129      O2131   1.270       .  A
C2129      C2656   1.497       .  S
C2130      C2644   1.490       .  S
C2132      C2680   1.484       .  S
Fe2133     O2149   2.028       .  S
Fe2133     O2139   2.059       .  S
Fe2133     O2146   2.062       .  S
Fe2133     O2138   2.048       .  S
Fe2133     O2144   1.955       .  S
Fe2134     O2137   2.069       .  S
Fe2134     O2141   2.117       .  S
Fe2134     O2145   2.077       .  S
Fe2134     O2150   2.102       .  S
Fe2134     O2144   1.955       .  S
Fe2135     O2153   2.072       .  S
Fe2135     O2140   2.049       .  S
Fe2135     O2147   2.053       .  S
Fe2135     O2136   2.065       .  S
Fe2135     O2144   1.952       .  S
O2136      C2143   1.271       .  A
O2137      C2151   1.272       .  A
O2138      C2143   1.267       .  A
O2139      C2142   1.268       .  A
O2140      C2152   1.268       .  A
O2141      C2154   1.280       .  A
C2142      O2147   1.266       .  A
C2142      C2665   1.468       .  S
C2143      C2617   1.457       .  S
O2145      C2148   1.270       .  A
O2146      C2148   1.264       .  A
C2148      C2608   1.497       .  S
O2149      C2154   1.267       .  A
O2150      C2152   1.277       .  A
C2151      O2153   1.270       .  A
C2151      C2593   1.499       .  S
C2152      C2581   1.491       .  S
C2154      C2629   1.475       .  S
Fe2155     O2171   2.045       .  S
Fe2155     O2161   2.074       .  S
Fe2155     O2168   2.072       .  S
Fe2155     O2160   2.066       .  S
Fe2155     O2166   1.965       .  S
Fe2156     O2159   2.065       .  S
Fe2156     O2163   2.109       .  S
Fe2156     O2167   2.064       .  S
Fe2156     O2172   2.107       .  S
Fe2156     O2166   1.954       .  S
Fe2157     O2175   2.045       .  S
Fe2157     O2162   2.041       .  S
Fe2157     O2169   2.053       .  S
Fe2157     O2158   2.030       .  S
Fe2157     O2166   1.942       .  S
O2158      C2165   1.267       .  A
O2159      C2173   1.268       .  A
O2160      C2165   1.270       .  A
O2161      C2164   1.269       .  A
O2162      C2174   1.266       .  A
O2163      C2176   1.280       .  A
C2164      O2169   1.263       .  A
C2164      C2548   1.468       .  S
C2165      C2569   1.474       .  S
O2167      C2170   1.266       .  A
O2168      C2170   1.268       .  A
C2170      C2557   1.497       .  S
O2171      C2176   1.271       .  A
O2172      C2174   1.278       .  A
C2173      O2175   1.265       .  A
C2173      C2536   1.489       .  S
C2174      C2641   1.491       .  S
C2176      C2605   1.476       .  S
Fe2177     O2193   2.038       .  S
Fe2177     O2183   2.073       .  S
Fe2177     O2190   2.077       .  S
Fe2177     O2182   2.052       .  S
Fe2177     O2188   1.950       .  S
Fe2178     O2181   2.071       .  S
Fe2178     O2185   2.120       .  S
Fe2178     O2189   2.073       .  S
Fe2178     O2194   2.107       .  S
Fe2178     O2188   1.949       .  S
Fe2179     O2197   2.071       .  S
Fe2179     O2184   2.030       .  S
Fe2179     O2191   2.036       .  S
Fe2179     O2180   2.077       .  S
Fe2179     O2188   1.941       .  S
O2180      C2187   1.273       .  A
O2181      C2195   1.273       .  A
O2182      C2187   1.269       .  A
O2183      C2186   1.270       .  A
O2184      C2196   1.263       .  A
O2185      C2198   1.281       .  A
C2186      O2191   1.260       .  A
C2186      C2509   1.461       .  S
C2187      C2500   1.462       .  S
O2189      C2192   1.269       .  A
O2190      C2192   1.267       .  A
C2192      C2485   1.498       .  S
O2193      C2198   1.269       .  A
O2194      C2196   1.278       .  A
C2195      O2197   1.271       .  A
C2195      C2596   1.499       .  S
C2196      C2713   1.489       .  S
C2198      C2521   1.476       .  S
Fe2199     O2215   2.041       .  S
Fe2199     O2205   2.073       .  S
Fe2199     O2212   2.082       .  S
Fe2199     O2204   2.043       .  S
Fe2199     O2210   1.960       .  S
Fe2200     O2203   2.069       .  S
Fe2200     O2207   2.112       .  S
Fe2200     O2211   2.075       .  S
Fe2200     O2216   2.104       .  S
Fe2200     O2210   1.958       .  S
Fe2201     O2219   2.077       .  S
Fe2201     O2206   2.045       .  S
Fe2201     O2213   2.043       .  S
Fe2201     O2202   2.072       .  S
Fe2201     O2210   1.960       .  S
O2202      C2209   1.269       .  A
O2203      C2217   1.269       .  A
O2204      C2209   1.265       .  A
O2205      C2208   1.272       .  A
O2206      C2218   1.268       .  A
O2207      C2220   1.279       .  A
C2208      O2213   1.265       .  A
C2208      C2473   1.465       .  S
C2209      C2497   1.458   1_556  S
O2211      C2214   1.269       .  A
O2212      C2214   1.270       .  A
C2214      C2464   1.501       .  S
O2215      C2220   1.267       .  A
O2216      C2218   1.279       .  A
C2217      O2219   1.270       .  A
C2217      C2449   1.491       .  S
C2218      C2437   1.495       .  S
C2220      C2560   1.479       .  S
Fe2221     O2237   2.052       .  S
Fe2221     O2227   2.055       .  S
Fe2221     O2234   2.055       .  S
Fe2221     O2226   2.072       .  S
Fe2221     O2232   1.970       .  S
Fe2222     O2225   2.063       .  S
Fe2222     O2229   2.108       .  S
Fe2222     O2233   2.073       .  S
Fe2222     O2238   2.095       .  S
Fe2222     O2232   1.969       .  S
Fe2223     O2241   2.046       .  S
Fe2223     O2228   2.047       .  S
Fe2223     O2235   2.058       .  S
Fe2223     O2224   2.039       .  S
Fe2223     O2232   1.964       .  S
O2224      C2231   1.267       .  A
O2225      C2239   1.267       .  A
O2226      C2231   1.272       .  A
O2227      C2230   1.267       .  A
O2228      C2240   1.268       .  A
O2229      C2242   1.280       .  A
C2230      O2235   1.265       .  A
C2230      C2752   1.477       .  S
C2231      C2416   1.475       .  S
O2233      C2236   1.265       .  A
O2234      C2236   1.263       .  A
C2236      C2524   1.494       .  S
O2237      C2242   1.272       .  A
O2238      C2240   1.277       .  A
C2239      O2241   1.264       .  A
C2239      C2533   1.483       .  S
C2240      C2401   1.487       .  S
C2242      C2425   1.483       .  S
Fe2243     O2259   2.065       .  S
Fe2243     O2249   2.049       .  S
Fe2243     O2256   2.043       .  S
Fe2243     O2248   2.081       .  S
Fe2243     O2254   1.953       .  S
Fe2244     O2247   2.091       .  S
Fe2244     O2251   2.091       .  S
Fe2244     O2255   2.104       .  S
Fe2244     O2260   2.089       .  S
Fe2244     O2254   1.959       .  S
Fe2245     O2263   2.040       .  S
Fe2245     O2250   2.049       .  S
Fe2245     O2257   2.061       .  S
Fe2245     O2246   2.039       .  S
Fe2245     O2254   1.956       .  S
O2246      C2253   1.269       .  A
O2247      C2261   1.277       .  A
O2248      C2253   1.271       .  A
O2249      C2252   1.264       .  A
O2250      C2262   1.264       .  A
O2251      C2264   1.272       .  A
C2252      O2257   1.263       .  A
C2252      C2389   1.476       .  S
C2253      C2704   1.471       .  S
O2255      C2258   1.278       .  A
O2256      C2258   1.269       .  A
C2258      C2632   1.490       .  S
O2259      C2264   1.268       .  A
O2260      C2262   1.272       .  A
C2261      O2263   1.269       .  A
C2261      C2377   1.483       .  S
C2262      C2404   1.478       .  S
C2264      C2764   1.486       .  S
Fe2265     O2281   2.033   1_554  S
Fe2265     O2271   2.085       .  S
Fe2265     O2278   2.087       .  S
Fe2265     O2270   2.034       .  S
Fe2265     O2276   1.959       .  S
Fe2266     O2269   2.072       .  S
Fe2266     O2273   2.141       .  S
Fe2266     O2277   2.080   1_556  S
Fe2266     O2282   2.123   1_556  S
Fe2266     O2276   1.946   1_556  S
Fe2267     O2285   2.073       .  S
Fe2267     O2272   2.018       .  S
Fe2267     O2279   2.036       .  S
Fe2267     O2268   2.087       .  S
Fe2267     O2276   1.938       .  S
O2268      C2275   1.279       .  A
O2269      C2283   1.271       .  A
O2270      C2275   1.268       .  A
O2271      C2274   1.267       .  A
O2272      C2284   1.260       .  A
O2273      C2286   1.289       .  A
C2274      O2279   1.255       .  A
C2274      C2512   1.467       .  S
C2275      C2413   1.454       .  S
O2277      C2280   1.266       .  A
O2278      C2280   1.270       .  A
C2280      C2740   1.507       .  S
O2281      C2286   1.270       .  A
O2282      C2284   1.282       .  A
C2283      O2285   1.272   1_556  A
C2283      C2653   1.500       .  S
C2284      C2365   1.498       .  S
C2286      C2461   1.482       .  S
Fe2287     O2303   2.046       .  S
Fe2287     O2293   2.074       .  S
Fe2287     O2300   2.078       .  S
Fe2287     O2292   2.069       .  S
Fe2287     O2298   1.962       .  S
Fe2288     O2291   2.070       .  S
Fe2288     O2295   2.115       .  S
Fe2288     O2299   2.070       .  S
Fe2288     O2304   2.103       .  S
Fe2288     O2298   1.948       .  S
Fe2289     O2307   2.046       .  S
Fe2289     O2294   2.038       .  S
Fe2289     O2301   2.051       .  S
Fe2289     O2290   2.031       .  S
Fe2289     O2298   1.935       .  S
O2290      C2297   1.265       .  A
O2291      C2305   1.270       .  A
O2292      C2297   1.273       .  A
O2293      C2296   1.269       .  A
O2294      C2306   1.265       .  A
O2295      C2308   1.282       .  A
C2296      O2301   1.263       .  A
C2296      C2476   1.467       .  S
C2297      C2572   1.472   1_554  S
O2299      C2302   1.267       .  A
O2300      C2302   1.267       .  A
C2302      C2353   1.492       .  S
O2303      C2308   1.271       .  A
O2304      C2306   1.278       .  A
C2305      O2307   1.265       .  A
C2305      C2380   1.490       .  S
C2306      C2368   1.478       .  S
C2308      C2488   1.478       .  S
Fe2309     O2325   2.045       .  S
Fe2309     O2315   2.056       .  S
Fe2309     O2322   2.051       .  S
Fe2309     O2314   2.061       .  S
Fe2309     O2320   1.967       .  S
Fe2310     O2313   2.098       .  S
Fe2310     O2317   2.095       .  S
Fe2310     O2321   2.104       .  S
Fe2310     O2326   2.090       .  S
Fe2310     O2320   1.974       .  S
Fe2311     O2329   2.061       .  S
Fe2311     O2316   2.043       .  S
Fe2311     O2323   2.057       .  S
Fe2311     O2312   2.051       .  S
Fe2311     O2320   1.961       .  S
O2312      C2319   1.270       .  A
O2313      C2327   1.279       .  A
O2314      C2319   1.268       .  A
O2315      C2318   1.267       .  A
O2316      C2328   1.263       .  A
O2317      C2330   1.274       .  A
C2318      O2323   1.263       .  A
C2318      C2392   1.472       .  S
C2319      C2773   1.460       .  S
O2321      C2324   1.276       .  A
O2322      C2324   1.267       .  A
C2324      C2428   1.496       .  S
O2325      C2330   1.266       .  A
O2326      C2328   1.271       .  A
C2327      O2329   1.272       .  A
C2327      C2452   1.504       .  S
C2328      C2584   1.485       .  S
C2330      C2692   1.484       .  S
Fe2331     O2347   2.039   1_556  S
Fe2331     O2337   2.072       .  S
Fe2331     O2344   2.083       .  S
Fe2331     O2336   2.043       .  S
Fe2331     O2342   1.950       .  S
Fe2332     O2335   2.076       .  S
Fe2332     O2339   2.123       .  S
Fe2332     O2343   2.080       .  S
Fe2332     O2348   2.107   1_554  S
Fe2332     O2342   1.952   1_554  S
Fe2333     O2351   2.093       .  S
Fe2333     O2338   2.040       .  S
Fe2333     O2345   2.045       .  S
Fe2333     O2334   2.078       .  S
Fe2333     O2342   1.947       .  S
O2334      C2341   1.273       .  A
O2335      C2349   1.274       .  A
O2336      C2341   1.266       .  A
O2337      C2340   1.271       .  A
O2338      C2350   1.265       .  A
O2339      C2352   1.281       .  A
C2340      O2345   1.265       .  A
C2340      C2545   1.466       .  S
C2341      C2620   1.457       .  S
O2343      C2346   1.270   1_554  A
O2344      C2346   1.271       .  A
C2346      C2677   1.507       .  S
O2347      C2352   1.266       .  A
O2348      C2350   1.277       .  A
C2349      O2351   1.276   1_554  A
C2349      C2728   1.499       .  S
C2350      C2440   1.492       .  S
C2352      C2356   1.481       .  S
C2353      C2354   1.406       .  A
C2353      C2358   1.416       .  A
C2354      H2359   1.085       .  S
C2355      C2356   1.411       .  A
C2355      C2362   1.445       .  S
C2356      C2357   1.404       .  A
C2357      H2360   1.084       .  S
C2358      C2361   1.443       .  S
C2361      N2363   1.157       .  T
C2362      N2364   1.157       .  T
C2365      C2366   1.405       .  A
C2365      C2370   1.430       .  A
C2366      C2367   1.405       .  A
C2366      H2371   1.084       .  S
C2367      C2368   1.413       .  A
C2367      C2374   1.442       .  S
C2368      C2369   1.394       .  A
C2369      C2370   1.398       .  A
C2369      H2372   1.086       .  S
C2370      C2373   1.446       .  S
C2373      N2375   1.158       .  T
C2374      N2376   1.157       .  T
C2377      C2378   1.407       .  A
C2377      C2382   1.411       .  A
C2378      C2379   1.398       .  A
C2378      H2383   1.085       .  S
C2379      C2380   1.414       .  A
C2379      C2386   1.444       .  S
C2380      C2381   1.411       .  A
C2381      C2382   1.398       .  A
C2381      H2384   1.084       .  S
C2382      C2385   1.445       .  S
C2385      N2387   1.158       .  T
C2386      N2388   1.157       .  T
C2389      C2394   1.414   1_565  A
C2390      C2391   1.404       .  A
C2390      H2395   1.085       .  S
C2391      C2392   1.410       .  A
C2391      C2398   1.441       .  S
C2392      C2393   1.400       .  A
C2394      C2397   1.446   1_545  S
C2397      N2399   1.157       .  T
C2398      N2400   1.157       .  T
C2401      C2402   1.401       .  A
C2401      C2406   1.420       .  A
C2402      C2403   1.401       .  A
C2402      H2407   1.085       .  S
C2403      C2404   1.415       .  A
C2403      C2410   1.444       .  S
C2404      C2405   1.400       .  A
C2405      C2406   1.404       .  A
C2405      H2408   1.085       .  S
C2406      C2409   1.445       .  S
C2409      N2411   1.157       .  T
C2410      N2412   1.157       .  T
C2413      C2414   1.404       .  A
C2413      C2418   1.396       .  A
C2414      C2415   1.402       .  A
C2414      H2419   1.085       .  S
C2415      C2416   1.411       .  A
C2415      C2422   1.444       .  S
C2416      C2417   1.410       .  A
C2417      C2418   1.387       .  A
C2417      H2420   1.084       .  S
C2418      C2421   1.446       .  S
C2421      N2423   1.157       .  T
C2422      N2424   1.158       .  T
C2425      C2426   1.405       .  A
C2425      C2430   1.409       .  A
C2426      C2427   1.408       .  A
C2426      H2431   1.085       .  S
C2427      C2434   1.443       .  S
C2428      C2429   1.409       .  A
C2429      H2432   1.085       .  S
C2430      C2433   1.444       .  S
C2434      N2436   1.157       .  T
C2437      C2438   1.412       .  A
C2437      C2442   1.413       .  A
C2438      C2439   1.403       .  A
C2438      H2443   1.085       .  S
C2439      C2440   1.412       .  A
C2439      C2446   1.444   1_556  S
C2440      C2441   1.410       .  A
C2441      C2442   1.402       .  A
C2441      H2444   1.085       .  S
C2442      C2445   1.444       .  S
C2445      N2447   1.157       .  T
C2446      N2448   1.157       .  T
C2449      C2450   1.403       .  A
C2449      C2454   1.413       .  A
C2450      C2451   1.405       .  A
C2450      H2455   1.085       .  S
C2451      C2452   1.423       .  A
C2451      C2458   1.443       .  S
C2452      C2453   1.409       .  A
C2453      C2454   1.403       .  A
C2453      H2456   1.084       .  S
C2454      C2457   1.443       .  S
C2457      N2459   1.157       .  T
C2458      N2460   1.157       .  T
C2461      C2462   1.403       .  A
C2461      C2466   1.411       .  A
C2462      C2463   1.407       .  A
C2462      H2467   1.085       .  S
C2463      C2464   1.418       .  A
C2463      C2470   1.442       .  S
C2464      C2465   1.410       .  A
C2465      C2466   1.406       .  A
C2465      H2468   1.085       .  S
C2466      C2469   1.444       .  S
C2469      N2471   1.157       .  T
C2470      N2472   1.157       .  T
C2473      C2474   1.411   1_556  A
C2473      C2478   1.403       .  A
C2474      C2475   1.403       .  A
C2474      H2479   1.085       .  S
C2475      C2482   1.443       .  S
C2476      C2477   1.405   1_554  A
C2477      H2480   1.081       .  S
C2478      C2481   1.445       .  S
C2482      N2484   1.157       .  T
C2485      C2486   1.408       .  A
C2485      C2490   1.421       .  A
C2486      H2491   1.085       .  S
C2487      C2488   1.410       .  A
C2487      C2494   1.445       .  S
C2488      C2489   1.401       .  A
C2489      H2492   1.085       .  S
C2490      C2493   1.444       .  S
C2493      N2495   1.157       .  T
C2494      N2496   1.157       .  T
C2497      C2498   1.403       .  A
C2497      C2502   1.402       .  A
C2498      C2499   1.399       .  A
C2498      H2503   1.085       .  S
C2499      C2500   1.408       .  A
C2499      C2506   1.444       .  S
C2500      C2501   1.403       .  A
C2501      C2502   1.394       .  A
C2501      H2504   1.084       .  S
C2502      C2505   1.444       .  S
C2505      N2507   1.157   1_554  T
C2506      N2508   1.157       .  T
C2509      C2510   1.408       .  A
C2509      C2514   1.399       .  A
C2510      C2511   1.402       .  A
C2510      H2515   1.084       .  S
C2511      C2512   1.402       .  A
C2511      C2518   1.442       .  S
C2512      C2513   1.407       .  A
C2513      C2514   1.394       .  A
C2513      H2516   1.079       .  S
C2514      C2517   1.443       .  S
C2517      N2519   1.157       .  T
C2518      N2520   1.157       .  T
C2521      C2522   1.403       .  A
C2521      C2526   1.407       .  A
C2522      C2523   1.405       .  A
C2522      H2527   1.085       .  S
C2523      C2524   1.418       .  A
C2523      C2530   1.444       .  S
C2524      C2525   1.409       .  A
C2525      C2526   1.402       .  A
C2525      H2528   1.085       .  S
C2526      C2529   1.443       .  S
C2529      N2531   1.157       .  T
C2530      N2532   1.158       .  T
C2533      C2534   1.407       .  A
C2533      C2538   1.411       .  A
C2534      C2535   1.398       .  A
C2534      H2539   1.085       .  S
C2535      C2536   1.415       .  A
C2535      C2542   1.445       .  S
C2536      C2537   1.411       .  A
C2537      C2538   1.397       .  A
C2537      H2540   1.084       .  S
C2538      C2541   1.445       .  S
C2541      N2543   1.157       .  T
C2542      N2544   1.157       .  T
C2545      C2546   1.410       .  A
C2545      C2550   1.403   1_655  A
C2546      H2551   1.084       .  S
C2547      C2548   1.404       .  A
C2547      C2554   1.443       .  S
C2548      C2549   1.405       .  A
C2549      H2552   1.081       .  S
C2550      C2553   1.445       .  S
C2553      N2555   1.157       .  T
C2554      N2556   1.157       .  T
C2557      C2558   1.408   1_565  A
C2558      H2563   1.085   1_545  S
C2559      C2560   1.408       .  A
C2559      C2566   1.442       .  S
C2560      C2561   1.402       .  A
C2561      C2562   1.406       .  A
C2561      H2564   1.085       .  S
C2565      N2567   1.158       .  T
C2566      N2568   1.157       .  T
C2569      C2570   1.401       .  A
C2569      C2574   1.413       .  A
C2570      C2571   1.377       .  A
C2570      H2575   1.087       .  S
C2571      C2572   1.416       .  A
C2571      C2578   1.449       .  S
C2572      C2573   1.407       .  A
C2573      C2574   1.406       .  A
C2573      H2576   1.087       .  S
C2574      C2577   1.442       .  S
C2577      N2579   1.157       .  T
C2578      N2580   1.158       .  T
C2581      C2582   1.412       .  A
C2581      C2586   1.412       .  A
C2582      C2583   1.406       .  A
C2582      H2587   1.084       .  S
C2583      C2584   1.408       .  A
C2583      C2590   1.443       .  S
C2584      C2585   1.407       .  A
C2585      C2586   1.401       .  A
C2585      H2588   1.084       .  S
C2586      C2589   1.444       .  S
C2589      N2591   1.157       .  T
C2590      N2592   1.157       .  T
C2593      C2594   1.406       .  A
C2593      C2598   1.420       .  A
C2594      C2595   1.401       .  A
C2594      H2599   1.085       .  S
C2595      C2596   1.420       .  A
C2595      C2602   1.445       .  S
C2596      C2597   1.407       .  A
C2597      C2598   1.403       .  A
C2597      H2600   1.085       .  S
C2598      C2601   1.445       .  S
C2601      N2603   1.158       .  T
C2602      N2604   1.157       .  T
C2605      C2606   1.399       .  A
C2605      C2610   1.409       .  A
C2606      H2611   1.085       .  S
C2607      C2608   1.422       .  A
C2607      C2614   1.444       .  S
C2608      C2609   1.409       .  A
C2609      H2612   1.084       .  S
C2610      C2613   1.442       .  S
C2613      N2615   1.157       .  T
C2614      N2616   1.157       .  T
C2617      C2618   1.404       .  A
C2617      C2622   1.404       .  A
C2618      C2619   1.394       .  A
C2618      H2623   1.085       .  S
C2619      C2620   1.402       .  A
C2619      C2626   1.444       .  S
C2620      C2621   1.405       .  A
C2621      C2622   1.397       .  A
C2621      H2624   1.085       .  S
C2622      C2625   1.444       .  S
C2625      N2627   1.158       .  T
C2626      N2628   1.157       .  T
C2629      C2630   1.403       .  A
C2629      C2634   1.409       .  A
C2630      C2631   1.407       .  A
C2630      H2635   1.085       .  S
C2631      C2632   1.416       .  A
C2631      C2638   1.443       .  S
C2632      C2633   1.407       .  A
C2633      C2634   1.398       .  A
C2633      H2636   1.085       .  S
C2634      C2637   1.445       .  S
C2637      N2639   1.157       .  T
C2638      N2640   1.157       .  T
C2641      C2642   1.411       .  A
C2641      C2646   1.411       .  A
C2642      C2643   1.404       .  A
C2642      H2647   1.088       .  S
C2643      C2644   1.410       .  A
C2643      C2650   1.443       .  S
C2644      C2645   1.411       .  A
C2645      C2646   1.402       .  A
C2645      H2648   1.085       .  S
C2646      C2649   1.444       .  S
C2649      N2651   1.157       .  T
C2650      N2652   1.157       .  T
C2653      C2654   1.409       .  A
C2653      C2658   1.418       .  A
C2654      C2655   1.403       .  A
C2654      H2659   1.084   1_556  S
C2655      C2656   1.416       .  A
C2655      C2662   1.444       .  S
C2656      C2657   1.408       .  A
C2657      C2658   1.402       .  A
C2657      H2660   1.085       .  S
C2658      C2661   1.445       .  S
C2661      N2663   1.157       .  T
C2662      N2664   1.157   1_556  T
C2665      C2666   1.409       .  A
C2665      C2670   1.406       .  A
C2666      C2667   1.405       .  A
C2666      H2671   1.085       .  S
C2667      C2668   1.406       .  A
C2667      C2674   1.442       .  S
C2668      C2669   1.404       .  A
C2669      C2670   1.393       .  A
C2669      H2672   1.083       .  S
C2670      C2673   1.446       .  S
C2673      N2675   1.157       .  T
C2674      N2676   1.157       .  T
C2677      C2678   1.411       .  A
C2677      C2682   1.423       .  A
C2678      C2679   1.402       .  A
C2678      H2683   1.084       .  S
C2679      C2680   1.409       .  A
C2679      C2686   1.445       .  S
C2680      C2681   1.403       .  A
C2681      C2682   1.411       .  A
C2681      H2684   1.085       .  S
C2682      C2685   1.443   1_556  S
C2685      N2687   1.157       .  T
C2686      N2688   1.157       .  T
C2689      C2694   1.420   1_565  A
C2690      C2691   1.399       .  A
C2691      C2692   1.410       .  A
C2691      C2698   1.446       .  S
C2692      C2693   1.404       .  A
C2693      H2696   1.085       .  S
C2694      C2697   1.443       .  S
C2697      N2699   1.157       .  T
C2698      N2700   1.157       .  T
C2701      C2702   1.399       .  A
C2701      C2706   1.411       .  A
C2702      C2703   1.390       .  A
C2702      H2707   1.085       .  S
C2703      C2704   1.413       .  A
C2703      C2710   1.446       .  S
C2704      C2705   1.404       .  A
C2705      C2706   1.402       .  A
C2705      H2708   1.085       .  S
C2706      C2709   1.443       .  S
C2709      N2711   1.157       .  T
C2710      N2712   1.157       .  T
C2713      C2714   1.402       .  A
C2713      C2718   1.421       .  A
C2714      C2715   1.402       .  A
C2714      H2719   1.085       .  S
C2715      C2716   1.419       .  A
C2715      C2722   1.446       .  S
C2716      C2717   1.400       .  A
C2717      C2718   1.402       .  A
C2717      H2720   1.085       .  S
C2718      C2721   1.445       .  S
C2721      N2723   1.157       .  T
C2722      N2724   1.157       .  T
C2725      C2726   1.407       .  A
C2725      C2730   1.421       .  A
C2726      C2727   1.407       .  A
C2726      H2731   1.084       .  S
C2727      C2728   1.416       .  A
C2727      C2734   1.443   1_554  S
C2728      C2729   1.405       .  A
C2729      C2730   1.406       .  A
C2729      H2732   1.084       .  S
C2730      C2733   1.445       .  S
C2733      N2735   1.157       .  T
C2734      N2736   1.157       .  T
C2737      C2738   1.407       .  A
C2737      C2742   1.415       .  A
C2738      C2739   1.415   1_655  A
C2738      H2743   1.084       .  S
C2739      C2746   1.443   1_554  S
C2740      C2741   1.406       .  A
C2741      H2744   1.085       .  S
C2742      C2745   1.443       .  S
C2746      N2748   1.157       .  T
C2749      C2754   1.409   1_655  A
C2750      C2751   1.411       .  A
C2750      H2755   1.084       .  S
C2751      C2752   1.409       .  A
C2751      C2758   1.442       .  S
C2753      C2754   1.384       .  A
C2753      H2756   1.082       .  S
C2754      C2757   1.449       .  S
C2757      N2759   1.158       .  T
C2758      N2760   1.157       .  T
C2761      C2762   1.407       .  A
C2761      C2766   1.419       .  A
C2762      H2767   1.085       .  S
C2763      C2764   1.414       .  A
C2763      C2770   1.443       .  S
C2765      C2766   1.403       .  A
C2765      H2768   1.085       .  S
C2766      C2769   1.442       .  S
C2769      N2771   1.156       .  T
C2770      N2772   1.157       .  T
C2773      C2774   1.404       .  A
C2773      C2778   1.403       .  A
C2774      C2775   1.398       .  A
C2774      H2779   1.082       .  S
C2775      C2776   1.408       .  A
C2775      C2782   1.444       .  S
C2776      C2777   1.408       .  A
C2777      C2778   1.391       .  A
C2777      H2780   1.085       .  S
C2778      C2781   1.445       .  S
C2781      N2783   1.157       .  T
C2782      N2784   1.158       .  T
