geometry optimzed in LAMMPS
_audit_creation_date              2020-12-01 
_audit_creation_method            'lammps2cif' 
_symmetry_space_group_name_H-M    'P1' 
_symmetry_Int_Tables_number       1 
_symmetry_cell_setting            triclinic 
loop_ 
_symmetry_equiv_pos_as_xyz 
  x,y,z 
_cell_length_a                    46.84739283 
_cell_length_b                    47.65803037931853 
_cell_length_c                    26.37174043472023 
_cell_angle_alpha                 89.72968887879345 
_cell_angle_beta                  90.02770082343363 
_cell_angle_gamma                 89.79002311103746 
loop_ 
_atom_site_label 
_atom_site_type_symbol 
_atom_site_fract_x 
_atom_site_fract_y 
_atom_site_fract_z 
_atom_site_charge 
Fe1        Fe  0.15550684  0.35298110  0.86818848     1.65800
Fe2        Fe  0.08741031  0.36532797  0.90713976     1.73200
Fe3        Fe  0.10206362  0.30653839  0.83675102     1.54400
O4          O  0.12239516  0.31813014  0.76999704    -0.82200
O5          O  0.06819059  0.33126715  0.94113984    -0.80500
O6          O  0.15602756  0.34941197  0.79031544    -0.84700
O7          O  0.17099288  0.31317643  0.87718944    -0.79600
O8          O  0.06445689  0.32460654  0.80905378    -0.81300
O9          O  0.11356146  0.36753013  0.96994033    -0.84100
C10         C  0.16266713  0.28815641  0.87230914     0.96700
C11         C  0.14209688  0.33527773  0.75787459     1.04100
O12         O  0.11495078  0.34147788  0.87073015    -1.13100
O13         O  0.10218413  0.40295715  0.87682477    -0.75500
O14         O  0.14760327  0.39513605  0.85826893    -0.79000
O15         O  0.13727754  0.28229216  0.85918780    -0.79700
C16         C  0.12626879  0.41135581  0.86109280     0.95600
O17         O  0.15813285  0.35737442  0.94601244    -0.77600
O18         O  0.05781787  0.36499414  0.84961049    -0.82800
C19         C  0.06660439  0.30494211  0.93468285     0.98200
C20         C  0.05021348  0.34692444  0.81723192     1.04100
O21         O  0.07968369  0.29201688  0.89953860    -0.78500
C22         C  0.13970769  0.36294550  0.97986861     1.02400
Fe23       Fe  0.34293252  0.16504557  0.83431892     1.65800
Fe24       Fe  0.35882492  0.10011273  0.87629563     1.73200
Fe25       Fe  0.30098523  0.10992124  0.80031621     1.54400
O26         O  0.27326742  0.13896097  0.83145644    -0.82200
O27         O  0.35500004  0.06671966  0.82700557    -0.80500
O28         O  0.30035950  0.17709547  0.83756341    -0.84700
O29         O  0.34288624  0.16432545  0.75647115    -0.79600
O30         O  0.29071387  0.08209617  0.85850836    -0.81300
O31         O  0.39429169  0.11233667  0.83619821    -0.84100
C32         C  0.32680617  0.15258906  0.72421619     0.96700
C33         C  0.27621404  0.16501079  0.83978075     1.04100
O34         O  0.33406553  0.12503804  0.83702978    -1.13100
O35         O  0.36738351  0.12952107  0.93196660    -0.75500
O36         O  0.34403529  0.16875453  0.91214640    -0.79000
O37         O  0.30766992  0.13497902  0.73660315    -0.79700
C38         C  0.35855227  0.15397822  0.94281921     0.95600
O39         O  0.38703625  0.15848494  0.83092268    -0.77600
O40         O  0.32451168  0.08623529  0.91799309    -0.82800
C41         C  0.34322646  0.06245225  0.78442071     0.98200
C42         C  0.30082740  0.07664332  0.90226774     1.04100
O43         O  0.32509925  0.07933564  0.76549872    -0.78500
C44         C  0.40303041  0.13694980  0.82652264     1.02400
Fe45       Fe  0.16588122  0.69863425  0.20825735     1.65800
Fe46       Fe  0.10110152  0.67371893  0.17135697     1.73200
Fe47       Fe  0.10496405  0.73524181  0.23503009     1.54400
O48         O  0.12246616  0.72548940  0.30430907    -0.82200
O49         O  0.07307800  0.70347306  0.14123631    -0.80500
O50         O  0.16460229  0.70524352  0.28644785    -0.84700
O51         O  0.17384964  0.74027523  0.19178066    -0.79600
O52         O  0.06942049  0.71253628  0.25645540    -0.81300
O53         O  0.12516401  0.67787478  0.10642133    -0.84100
C54         C  0.16153672  0.76329259  0.20157428     0.96700
C55         C  0.14556849  0.71350266  0.31785079     1.04100
O56         O  0.12421642  0.70253151  0.20469932    -1.13100
O57         O  0.12497789  0.63916341  0.19638343    -0.75500
O58         O  0.16553990  0.65646386  0.22527991    -0.79000
O59         O  0.13666715  0.76424100  0.22010300    -0.79700
C60         C  0.14912260  0.63592204  0.21755510     0.95600
O61         O  0.16908439  0.69096092  0.13047056    -0.77600
O62         O  0.07533945  0.66807100  0.23398465    -0.82800
C63         C  0.07149040  0.73012255  0.13882486     0.98200
C64         C  0.06222388  0.68690807  0.25864879     1.04100
O65         O  0.08601929  0.74615498  0.16705213    -0.78500
C66         C  0.15088775  0.68443471  0.09646984     1.02400
Fe67       Fe  0.34759732  0.87916185  0.16405213     1.65800
Fe68       Fe  0.36381331  0.94587270  0.12986494     1.73200
Fe69       Fe  0.30665517  0.93373299  0.20708653     1.54400
O70         O  0.27965376  0.89997384  0.19005600    -0.82200
O71         O  0.37037679  0.97022863  0.19237466    -0.80500
O72         O  0.30625714  0.86914668  0.14821017    -0.84700
O73         O  0.34172664  0.87426994  0.24045224    -0.79600
O74         O  0.28953659  0.95578563  0.14674231    -0.81300
O75         O  0.40175257  0.92594660  0.14914711    -0.84100
C76         C  0.33466664  0.89020470  0.27670954     0.96700
C77         C  0.28237253  0.87736001  0.16496048     1.04100
O78         O  0.33923239  0.91957665  0.16673388    -1.13100
O79         O  0.35972583  0.92387719  0.06338850    -0.75500
O80         O  0.35501611  0.87923997  0.08750054    -0.79000
O81         O  0.32198154  0.91356490  0.27051570    -0.79700
C82         C  0.35772727  0.89793412  0.05359320     0.95600
O83         O  0.39004631  0.88405124  0.17978971    -0.77600
O84         O  0.32926511  0.96994281  0.10717973    -0.82800
C85         C  0.35303300  0.97981275  0.22468340     0.98200
C86         C  0.30243746  0.97087789  0.11433460     1.04100
O87         O  0.32812679  0.96978115  0.23089365    -0.78500
C88         C  0.40824662  0.90290596  0.17053589     1.02400
Fe89       Fe  0.68293398  0.15753853  0.17273686     1.65800
Fe90       Fe  0.66761214  0.09120586  0.13287897     1.73200
Fe91       Fe  0.72596243  0.10201410  0.20873425     1.54400
O92         O  0.75278707  0.13456689  0.18851347    -0.82200
O93         O  0.66445565  0.06187848  0.19090813    -0.80500
O94         O  0.72481687  0.17020853  0.16617708    -0.84700
O95         O  0.68550939  0.15831195  0.25079028    -0.79600
O96         O  0.74123696  0.07926824  0.14783037    -0.81300
O97         O  0.62962990  0.10817346  0.15868772    -0.84100
C98         C  0.69853123  0.14392016  0.28439630     0.96700
C99         C  0.74932840  0.15981425  0.17444710     1.04100
O100        O  0.69223042  0.11690810  0.17149531    -1.13100
O101        O  0.66863854  0.11708170  0.06958290    -0.75500
O102        O  0.67962124  0.16041679  0.09465128    -0.79000
O103        O  0.71422260  0.12285514  0.27409563    -0.79700
C104        C  0.67400966  0.14272735  0.06019470     0.95600
O105        O  0.63930108  0.15206353  0.18017676    -0.77600
O106        O  0.70196520  0.07024849  0.10272618    -0.82800
C107        C  0.68198294  0.05354167  0.22452833     0.98200
C108        C  0.72841315  0.06728063  0.11157310     1.04100
O109        O  0.70489531  0.06658277  0.23448434    -0.78500
C110        C  0.62188590  0.13201512  0.17476750     1.02400
Fe111      Fe  0.86435104  0.35214009  0.20028635     1.65800
Fe112      Fe  0.93340726  0.36386850  0.16721808     1.73200
Fe113      Fe  0.91683342  0.30483355  0.23521650     1.54400
O114        O  0.89542693  0.31580310  0.30076958    -0.82200
O115        O  0.95602169  0.33013179  0.13990372    -0.80500
O116        O  0.86034271  0.34506045  0.27721723    -0.84700
O117        O  0.84981447  0.31303744  0.18317956    -0.79600
O118        O  0.95412855  0.32270666  0.26525579    -0.81300
O119        O  0.91040938  0.36411882  0.10061972    -0.84100
C120        C  0.85768175  0.28790868  0.18999921     0.96700
C121        C  0.87419227  0.33150257  0.31086953     1.04100
O122        O  0.90482366  0.34018259  0.20092206    -1.13100
O123        O  0.91622311  0.40173704  0.19067839    -0.75500
O124        O  0.87229741  0.39324469  0.21757317    -0.79000
O125        O  0.88175524  0.28166408  0.20953143    -0.79700
C126        C  0.89297693  0.40970716  0.21051740     0.95600
O127        O  0.86457341  0.36065570  0.12313191    -0.77600
O128        O  0.95901800  0.36509461  0.23020284    -0.82800
C129        C  0.95642775  0.30364446  0.14408638     0.98200
C130        C  0.96712973  0.34609848  0.26088519     1.04100
O131        O  0.94013472  0.29020283  0.17387997    -0.78500
C132        C  0.88399553  0.36337740  0.08980530     1.02400
Fe133      Fe  0.86543096  0.68678235  0.86270980     1.65800
Fe134      Fe  0.93242217  0.67075970  0.90305104     1.73200
Fe135      Fe  0.92037746  0.73320980  0.84117137     1.54400
O136        O  0.90313024  0.72410760  0.77082630    -0.82200
O137        O  0.95022989  0.70269488  0.94403674    -0.80500
O138        O  0.86645267  0.69534760  0.78716731    -0.84700
O139        O  0.85045113  0.72619312  0.87911334    -0.79600
O140        O  0.95868361  0.71665681  0.81564418    -0.81300
O141        O  0.90482020  0.66445802  0.96289214    -0.84100
C142        C  0.85927332  0.75108696  0.87396047     0.96700
C143        C  0.88253775  0.70859070  0.75677537     1.04100
O144        O  0.90603786  0.69704079  0.86919841    -1.13100
O145        O  0.91819294  0.63555021  0.86590723    -0.75500
O146        O  0.87329310  0.64532014  0.84532034    -0.79000
O147        O  0.88457444  0.75663993  0.86033153    -0.79700
C148        C  0.89432888  0.62860794  0.84753092     0.95600
O149        O  0.86109108  0.67692617  0.93752726    -0.77600
O150        O  0.96288380  0.67366644  0.84759802    -0.82800
C151        C  0.95062265  0.72931777  0.94419975     0.98200
C152        C  0.97152805  0.69328038  0.81911738     1.04100
O153        O  0.93924688  0.74444734  0.90968761    -0.78500
C154        C  0.87832084  0.66804122  0.97089761     1.02400
Fe155      Fe  0.67848827  0.87098786  0.83727718     1.65800
Fe156      Fe  0.66085994  0.93511957  0.88428340     1.73200
Fe157      Fe  0.71736355  0.92928330  0.80323336     1.54400
O158        O  0.74600241  0.89670642  0.81841703    -0.82200
O159        O  0.65301119  0.96366981  0.82779602    -0.80500
O160        O  0.72064152  0.86123728  0.84981591    -0.84700
O161        O  0.68402432  0.87071448  0.75953998    -0.79600
O162        O  0.73343535  0.94994179  0.86503796    -0.81300
O163        O  0.62339992  0.91558093  0.86250273    -0.84100
C164        C  0.69329384  0.88772109  0.72620914     0.96700
C165        C  0.74430870  0.87235953  0.83815636     1.04100
O166        O  0.68561343  0.91177867  0.84150637    -1.13100
O167        O  0.66652859  0.90915915  0.94520513    -0.75500
O168        O  0.67202429  0.86594394  0.91475471    -0.79000
O169        O  0.70495490  0.91086908  0.73701418    -0.79700
C170        C  0.66962044  0.88297651  0.95140345     0.95600
O171        O  0.63542506  0.87592627  0.82390886    -0.77600
O172        O  0.69456209  0.95849636  0.91137153    -0.82800
C173        C  0.66865769  0.97442907  0.79384242     0.98200
C174        C  0.72087245  0.96174702  0.90165081     1.04100
O175        O  0.69323041  0.96462501  0.78282391    -0.78500
C176        C  0.61692615  0.89385939  0.83743688     1.02400
Fe177      Fe  0.36578597  0.19662910  0.33479596     1.65800
Fe178      Fe  0.43210035  0.17157348  0.36413619     1.73200
Fe179      Fe  0.42498696  0.23220680  0.29751162     1.54400
O180        O  0.40585124  0.22001054  0.23082791    -0.82200
O181        O  0.45802135  0.20240909  0.39437457    -0.80500
O182        O  0.36272091  0.20552762  0.25733296    -0.84700
O183        O  0.35920203  0.23771431  0.35442083    -0.79600
O184        O  0.46176722  0.21088759  0.27588682    -0.81300
O185        O  0.40935123  0.17322587  0.43060920    -0.84100
C186        C  0.36908964  0.26021852  0.33621747     0.96700
C187        C  0.38059121  0.21131703  0.22222779     1.04100
O188        O  0.40748574  0.19995717  0.33216045    -1.13100
O189        O  0.40860679  0.13751215  0.33878829    -0.75500
O190        O  0.36625613  0.15486027  0.31667633    -0.79000
O191        O  0.39202217  0.26060799  0.31081560    -0.79700
C192        C  0.38345582  0.13446493  0.32166349     0.95600
O193        O  0.36509806  0.18728464  0.41188340    -0.77600
O194        O  0.45811248  0.16678608  0.30143145    -0.82800
C195        C  0.45770318  0.22911650  0.39615453     0.98200
C196        C  0.47062643  0.18569564  0.27600537     1.04100
O197        O  0.44430026  0.24453169  0.36445993    -0.78500
C198        C  0.38398017  0.17924511  0.44350838     1.02400
Fe199      Fe  0.18116976  0.37532782  0.36804854     1.65800
Fe200      Fe  0.16240124  0.44155078  0.40069988     1.73200
Fe201      Fe  0.22324675  0.43130314  0.33413667     1.54400
O202        O  0.24972320  0.39702933  0.35053459    -0.82200
O203        O  0.15762523  0.46553237  0.33613106    -0.80500
O204        O  0.22226190  0.36494230  0.38696189    -0.84700
O205        O  0.18952545  0.37292568  0.29073859    -0.79600
O206        O  0.23709854  0.45092914  0.39954235    -0.81300
O207        O  0.12569074  0.42049416  0.37933599    -0.84100
C208        C  0.19926967  0.38960472  0.25694113     0.96700
C209        C  0.24646877  0.37355465  0.37276596     1.04100
O210        O  0.18896649  0.41585124  0.36766168    -1.13100
O211        O  0.16564572  0.41950792  0.46786036    -0.75500
O212        O  0.17206684  0.37473327  0.44521685    -0.79000
O213        O  0.21132762  0.41281981  0.26710455    -0.79700
C214        C  0.16847543  0.39361927  0.47867271     0.95600
O215        O  0.13855348  0.37896035  0.34944760    -0.77600
O216        O  0.19491819  0.46713785  0.42597222    -0.82800
C217        C  0.17714911  0.47776629  0.31130237     0.98200
C218        C  0.22203276  0.46751350  0.42603652     1.04100
O219        O  0.20282674  0.46877502  0.31122644    -0.78500
C220        C  0.11972813  0.39735803  0.35835603     1.02400
Fe221      Fe  0.83785857  0.37539473  0.70111696     1.65800
Fe222      Fe  0.85672871  0.44056921  0.65952241     1.73200
Fe223      Fe  0.79703647  0.43298968  0.73293087     1.54400
O224        O  0.76914548  0.40115546  0.71512338    -0.82200
O225        O  0.85984652  0.47054177  0.71504338    -0.80500
O226        O  0.79562935  0.36466523  0.69244313    -0.84700
O227        O  0.83478080  0.37601055  0.77945488    -0.79600
O228        O  0.78311934  0.45405361  0.66854153    -0.81300
O229        O  0.89317444  0.42265618  0.68998968    -0.84100
C230        C  0.82346419  0.39226851  0.81206526     0.96700
C231        C  0.77160720  0.37615414  0.69987750     1.04100
O232        O  0.83045840  0.41630439  0.69783800    -1.13100
O233        O  0.85641064  0.41414379  0.59832696    -0.75500
O234        O  0.84166429  0.37177998  0.62303594    -0.79000
O235        O  0.80839992  0.41357605  0.80011324    -0.79700
C236        C  0.84908810  0.38912846  0.58879253     0.95600
O237        O  0.88152671  0.37897424  0.71042414    -0.77600
O238        O  0.82344367  0.46151696  0.62514329    -0.82800
C239        C  0.84262688  0.47976380  0.74800406     0.98200
C240        C  0.79672697  0.46439969  0.63129429     1.04100
O241        O  0.81890554  0.46803665  0.75702434    -0.78500
C242        C  0.89965667  0.39854007  0.70702213     1.02400
Fe243      Fe  0.66100031  0.18869002  0.67274514     1.65800
Fe244      Fe  0.59400524  0.16859333  0.63892205     1.73200
Fe245      Fe  0.60349961  0.22936911  0.70523002     1.54400
O246        O  0.62329484  0.21877975  0.77311593    -0.82200
O247        O  0.56992596  0.20039085  0.60665160    -0.80500
O248        O  0.66226240  0.19423886  0.75066636    -0.84700
O249        O  0.67153396  0.22931341  0.65815463    -0.79600
O250        O  0.56703593  0.20897199  0.73040391    -0.81300
O251        O  0.61825360  0.16949064  0.57394867    -0.84100
C252        C  0.66114757  0.25318927  0.66717371     0.96700
C253        C  0.64588030  0.20497202  0.78406315     1.04100
O254        O  0.61955390  0.19551422  0.67241749    -1.13100
O255        O  0.61447827  0.13270156  0.66621874    -0.75500
O256        O  0.65805385  0.14667802  0.68638923    -0.79000
O257        O  0.63654825  0.25634828  0.68617932    -0.79700
C258        C  0.63953811  0.12768194  0.68218500     0.95600
O259        O  0.66248627  0.18239675  0.59522559    -0.77600
O260        O  0.56679814  0.16564486  0.69978208    -0.82800
C261        C  0.56950268  0.22704215  0.60684661     0.98200
C262        C  0.55629087  0.18458995  0.72774932     1.04100
O263        O  0.58292892  0.24173414  0.63906995    -0.78500
C264        C  0.64381972  0.17561745  0.56254031     1.02400
Fe265      Fe  0.65716717  0.84431835  0.33835164     1.65800
Fe266      Fe  0.58959876  0.86049767  0.37490108     1.73200
Fe267      Fe  0.60153574  0.80102275  0.30897506     1.54400
O268        O  0.61964002  0.81189587  0.24072874    -0.82200
O269        O  0.56389979  0.82823016  0.40019987    -0.80500
O270        O  0.65875565  0.83639059  0.26114669    -0.84700
O271        O  0.67031346  0.80412632  0.35606638    -0.79600
O272        O  0.56387711  0.82080599  0.28526562    -0.81300
O273        O  0.61242619  0.85655272  0.44063316    -0.84100
C274        C  0.66102004  0.77986699  0.34601276     0.96700
C275        C  0.64219773  0.82511347  0.22870592     1.04100
O276        O  0.61636482  0.83529389  0.34058541    -1.13100
O277        O  0.60980301  0.89758519  0.35528998    -0.75500
O278        O  0.65101461  0.88606686  0.31999756    -0.79000
O279        O  0.63647022  0.77606711  0.32700525    -0.79700
C280        C  0.63236242  0.90417281  0.33174481     0.95600
O281        O  0.65802086  0.85283216  0.41542601    -0.77600
O282        O  0.56544756  0.86519002  0.31096105    -0.82800
C283        C  0.56551913  0.80169726  0.40250282     0.98200
C284        C  0.55434161  0.84590130  0.28471109     1.04100
O285        O  0.58261042  0.78756701  0.37549886    -0.78500
C286        C  0.63897615  0.85468504  0.44977898     1.02400
Fe287      Fe  0.85576414  0.66239208  0.37337683     1.65800
Fe288      Fe  0.86708760  0.59464004  0.40886593     1.73200
Fe289      Fe  0.80850984  0.61140491  0.33670781     1.54400
O290        O  0.78472122  0.64700013  0.35479663    -0.82200
O291        O  0.86668960  0.56639334  0.35046394    -0.80500
O292        O  0.81560672  0.67870241  0.38119309    -0.84700
O293        O  0.85343943  0.66369979  0.29650213    -0.79600
O294        O  0.79193510  0.59189652  0.40081813    -0.81300
O295        O  0.90573664  0.60840621  0.38057169    -0.84100
C296        C  0.84168119  0.64933024  0.26198287     0.96700
C297        C  0.79038314  0.67125386  0.37150744     1.04100
O298        O  0.84367270  0.62281069  0.37304382    -1.13100
O299        O  0.87000796  0.61947058  0.47231947    -0.75500
O300        O  0.85908942  0.66351613  0.45023189    -0.79000
O301        O  0.82365769  0.62985636  0.27053224    -0.79700
C302        C  0.86518241  0.64500086  0.48304659     0.95600
O303        O  0.89849403  0.65366296  0.36580673    -0.77600
O304        O  0.83141802  0.57722192  0.44123154    -0.82800
C305        C  0.84790183  0.55928360  0.31861295     0.98200
C306        C  0.80447963  0.57871404  0.43657379     1.04100
O307        O  0.82520812  0.57342982  0.31171299    -0.78500
C308        C  0.91470248  0.63241069  0.36771380     1.02400
Fe309      Fe  0.36169273  0.85353912  0.67477112     1.65800
Fe310      Fe  0.42875750  0.86890879  0.63288400     1.73200
Fe311      Fe  0.41699262  0.80779894  0.69748639     1.54400
O312        O  0.40102722  0.81841006  0.76774117    -0.82200
O313        O  0.44773404  0.83611984  0.59473490    -0.80500
O314        O  0.36172150  0.84346967  0.75026284    -0.84700
O315        O  0.34748916  0.81442647  0.65402984    -0.79600
O316        O  0.45573481  0.82447048  0.72003216    -0.81300
O317        O  0.40161009  0.87303392  0.57189943    -0.84100
C318        C  0.35633386  0.78967736  0.66206134     0.96700
C319        C  0.37918189  0.83238648  0.78130430     1.04100
O320        O  0.40242781  0.84341650  0.66817865    -1.13100
O321        O  0.41312716  0.90474806  0.66665119    -0.75500
O322        O  0.36979411  0.89430975  0.69558252    -0.79000
O323        O  0.38088741  0.78463094  0.68027722    -0.79700
C324        C  0.39023374  0.91127595  0.68926148     0.95600
O325        O  0.35751016  0.86533183  0.60069567    -0.77600
O326        O  0.45884719  0.86790439  0.68983025    -0.82800
C327        C  0.44692525  0.80947200  0.59507416     0.98200
C328        C  0.46819302  0.84801187  0.71717352     1.04100
O329        O  0.43450050  0.79517659  0.62926578    -0.78500
C330        C  0.37479463  0.87163751  0.56570303     1.02400
Fe331      Fe  0.18186616  0.66422759  0.70454096     1.65800
Fe332      Fe  0.16384114  0.59797391  0.66750114     1.73200
Fe333      Fe  0.22399758  0.60781604  0.73902169     1.54400
O334        O  0.25098282  0.63982723  0.71502853    -0.82200
O335        O  0.16020441  0.57035496  0.72777642    -0.80500
O336        O  0.22339203  0.67496555  0.68837087    -0.84700
O337        O  0.18884598  0.66678826  0.78202903    -0.79600
O338        O  0.23731380  0.58437357  0.67727265    -0.81300
O339        O  0.12707555  0.61744880  0.69247010    -0.84100
C340        C  0.20122214  0.65178033  0.81555106     0.96700
C341        C  0.24778266  0.66417523  0.69593005     1.04100
O342        O  0.18989964  0.62334920  0.70383374    -1.13100
O343        O  0.16517797  0.62225713  0.60271973    -0.75500
O344        O  0.17373679  0.66617877  0.62740738    -0.79000
O345        O  0.21462176  0.62928708  0.80504439    -0.79700
C346        C  0.16864621  0.64814766  0.59329966     0.95600
O347        O  0.13908377  0.65974373  0.72007841    -0.77600
O348        O  0.19661589  0.57487475  0.63706618    -0.82800
C349        C  0.17801093  0.56139926  0.76041477     0.98200
C350        C  0.22332091  0.57204787  0.64277749     1.04100
O351        O  0.20205875  0.57316137  0.76753044    -0.78500
C352        C  0.12067063  0.64092535  0.71183215     1.02400
C353        C  0.27330875  0.68144816  0.68408653    -0.05800
C354        C  0.29974007  0.67542991  0.70703639    -0.05700
C355        C  0.32255252  0.69416597  0.70266703    -0.23900
C356        C  0.31934431  0.71931996  0.67537354     0.18400
C357        C  0.29347543  0.72476834  0.64951249     0.15600
C358        C  0.27073833  0.70574145  0.65370434    -0.18900
C359        C  0.29020470  0.74992675  0.62230611    -0.20700
C360        C  0.31143433  0.77043834  0.62403114    -0.13300
C361        C  0.33652361  0.76603214  0.65238023     0.03400
C362        C  0.34087757  0.73980447  0.67601794    -0.25400
H363        H  0.30238726  0.65688076  0.73046386     0.08500
H364        H  0.34230428  0.68953371  0.72244839     0.12100
H365        H  0.25060824  0.71053527  0.63524297     0.12000
H366        H  0.27067272  0.75430555  0.60166222     0.11800
H367        H  0.30770830  0.79022738  0.60473237     0.12300
H368        H  0.36014625  0.73602255  0.69781405     0.14300
C369        C  0.68008760  0.75525364  0.35466562    -0.05800
C370        C  0.67279592  0.72868782  0.33560937    -0.05700
C371        C  0.69214917  0.70627053  0.33810477    -0.23900
C372        C  0.71924156  0.70992371  0.35967469     0.18400
C373        C  0.72637511  0.73619294  0.38079601     0.15600
C374        C  0.70679025  0.75857663  0.37840974    -0.18900
C375        C  0.75338908  0.73996955  0.40237444    -0.20700
C376        C  0.77359479  0.71838455  0.40107212    -0.13300
C377        C  0.76727765  0.69242959  0.37834414     0.03400
C378        C  0.73965071  0.68812715  0.35885565    -0.25400
H379        H  0.65242662  0.72541745  0.31718099     0.08500
H380        H  0.68619220  0.68627864  0.32190617     0.12100
H381        H  0.71276729  0.77882886  0.39356853     0.12000
H382        H  0.75919153  0.75989017  0.41905053     0.11800
H383        H  0.79454055  0.72235628  0.41682391     0.12300
H384        H  0.73439521  0.66831219  0.34121544     0.14300
C385        C  0.46151588  0.79535248  0.55327644    -0.05800
C386        C  0.45089897  0.79915781  0.50401689    -0.05700
C387        C  0.46859529  0.79505996  0.46220387    -0.23900
C388        C  0.49739177  0.78806930  0.46942633     0.18400
C389        C  0.50764102  0.78191402  0.51876688     0.15600
C390        C  0.48932279  0.78505677  0.56052660    -0.18900
C391        C  0.53675503  0.77596288  0.52592855    -0.20700
C392        C  0.55595552  0.77923005  0.48569958    -0.13300
C393        C  0.54606364  0.78776419  0.43786317     0.03400
C394        C  0.51668207  0.79045607  0.42915306    -0.25400
H395        H  0.42956323  0.80741150  0.49812553     0.08500
H396        H  0.46042376  0.79974008  0.42463272     0.12100
H397        H  0.49762167  0.78272077  0.59872650     0.12000
H398        H  0.54497678  0.77114137  0.56339697     0.11800
H399        H  0.57865767  0.77754171  0.49299369     0.12300
H400        H  0.50920382  0.79752135  0.39226820     0.14300
C401        C  0.74561080  0.35929607  0.69160757    -0.05800
C402        C  0.72062388  0.36452884  0.71960308    -0.05700
C403        C  0.69735272  0.34627136  0.71649789    -0.23900
C404        C  0.69866301  0.32260494  0.68514023     0.18400
C405        C  0.72309723  0.31822635  0.65461980     0.15600
C406        C  0.74632090  0.33653793  0.65806509    -0.18900
C407        C  0.72454431  0.29480825  0.62297290    -0.20700
C408        C  0.70306965  0.27470243  0.62443489    -0.13300
C409        C  0.67964276  0.27768539  0.65737043     0.03400
C410        C  0.67683846  0.30240617  0.68587689    -0.25400
H411        H  0.71957054  0.38202132  0.74559130     0.08500
H412        H  0.67875727  0.35012385  0.73994005     0.12100
H413        H  0.76536328  0.33254638  0.63579103     0.12000
H414        H  0.74293066  0.29135961  0.59880647     0.11800
H415        H  0.70549506  0.25605928  0.60147858     0.12300
H416        H  0.65885827  0.30493907  0.71136024     0.14300
C417        C  0.78190479  0.48174400  0.59366993    -0.05800
C418        C  0.77716811  0.47096909  0.54502046    -0.05700
C419        C  0.77403715  0.48912812  0.50359380    -0.23900
C420        C  0.77674841  0.51818778  0.51031566     0.18400
C421        C  0.77915399  0.52914751  0.55995565     0.15600
C422        C  0.78097307  0.51077591  0.60148919    -0.18900
C423        C  0.78329033  0.55799017  0.56675598    -0.20700
C424        C  0.78818462  0.57530074  0.52487941    -0.13300
C425        C  0.78802655  0.56418766  0.47574560     0.03400
C426        C  0.78063807  0.53601107  0.46834657    -0.25400
H427        H  0.77833277  0.44856369  0.53850589     0.08500
H428        H  0.77213627  0.48035671  0.46590798     0.12100
H429        H  0.78535068  0.51899746  0.63899234     0.12000
H430        H  0.78528470  0.56669691  0.60448334     0.11800
H431        H  0.79454331  0.59685833  0.53105635     0.12300
H432        H  0.78142023  0.52729314  0.43044247     0.14300
C433        C  0.23529149  0.49016244  0.45498518    -0.05800
C434        C  0.23101201  0.51755703  0.43685577    -0.05700
C435        C  0.23291478  0.54036394  0.46943319    -0.23900
C436        C  0.23886975  0.53600570  0.52085967     0.18400
C437        C  0.24599437  0.50877564  0.53861712     0.15600
C438        C  0.24430821  0.48584195  0.50523605    -0.18900
C439        C  0.25173423  0.50469433  0.59043040    -0.20700
C440        C  0.24749690  0.52666874  0.62479656    -0.13300
C441        C  0.23771542  0.55289976  0.60758853     0.03400
C442        C  0.23489952  0.55786221  0.55545434    -0.25400
H443        H  0.22368459  0.52107794  0.39835563     0.08500
H444        H  0.22758829  0.56110499  0.45522217     0.12100
H445        H  0.24706373  0.46462768  0.51948192     0.12000
H446        H  0.25745577  0.48409301  0.60478692     0.11800
H447        H  0.24941634  0.52248934  0.66507261     0.12300
H448        H  0.22703234  0.57806558  0.54230722     0.14300
C449        C  0.27109917  0.35424890  0.38018056    -0.05800
C450        C  0.26864279  0.33181254  0.41479184    -0.05700
C451        C  0.28874792  0.31018088  0.41569319    -0.23900
C452        C  0.31168467  0.31035482  0.38174245     0.18400
C453        C  0.31536895  0.33339489  0.34844924     0.15600
C454        C  0.29519203  0.35542843  0.34826127    -0.18900
C455        C  0.33838636  0.33323087  0.31434696    -0.20700
C456        C  0.35675734  0.30997970  0.31181855    -0.13300
C457        C  0.35244661  0.28648210  0.34338516     0.03400
C458        C  0.33022756  0.28724780  0.37916795    -0.25400
H459        H  0.25046484  0.33040803  0.44002462     0.08500
H460        H  0.28572986  0.29275625  0.44169059     0.12100
H461        H  0.29727492  0.37246274  0.32113739     0.12000
H462        H  0.34165657  0.35068873  0.28854185     0.11800
H463        H  0.37364830  0.30994594  0.28380908     0.12300
H464        H  0.32669977  0.26938264  0.40398296     0.14300
C465        C  0.47287728  0.24166794  0.43893036    -0.05800
C466        C  0.45981745  0.24069905  0.48675376    -0.05700
C467        C  0.47617614  0.24266330  0.53083427    -0.23900
C468        C  0.50592634  0.24506367  0.52754546     0.18400
C469        C  0.51899901  0.24821239  0.47944375     0.15600
C470        C  0.50225749  0.24679319  0.43528512    -0.18900
C471        C  0.54883960  0.24982633  0.47618454    -0.20700
C472        C  0.56560861  0.24575941  0.51950590    -0.13300
C473        C  0.55275279  0.24064430  0.56665184     0.03400
C474        C  0.52294769  0.24154918  0.57094222    -0.25400
H475        H  0.43723477  0.23616371  0.48998961     0.08500
H476        H  0.46581145  0.24022564  0.56730846     0.12100
H477        H  0.51239505  0.24681074  0.39832605     0.12000
H478        H  0.55923082  0.25222492  0.43973326     0.11800
H479        H  0.58860227  0.24452049  0.51559297     0.12300
H480        H  0.51307099  0.23692095  0.60720806     0.14300
C481        C  0.65801539  0.00013157  0.76808277    -0.05800
C482        C  0.62870406  0.00684713  0.76881248    -0.05700
C483        C  0.61881715  0.03249327  0.74951652    -0.23900
C484        C  0.63808267  0.05216940  0.72991190     0.18400
C485        C  0.66754464  0.04545599  0.72853504     0.15600
C486        C  0.67723677  0.01941164  0.74689857    -0.18900
C487        C  0.68699319  0.06525012  0.71027724    -0.20700
C488        C  0.67754150  0.09166029  0.69464260    -0.13300
C489        C  0.64836654  0.09880361  0.69621459     0.03400
C490        C  0.62859535  0.07870227  0.71304513    -0.25400
H491        H  0.61341299  0.99237539  0.78501759     0.08500
H492        H  0.59617552  0.03719603  0.75106129     0.12100
H493        H  0.69990981  0.01470466  0.74681230     0.12000
H494        H  0.70963322  0.06050825  0.70897787     0.11800
H495        H  0.69321356  0.10665282  0.68141826     0.12300
H496        H  0.60608987  0.08403464  0.71475048     0.14300
C497        C  0.64872247  0.82874305  0.17437342    -0.05800
C498        C  0.63685928  0.81085425  0.13775534    -0.05700
C499        C  0.64058025  0.81637331  0.08602214    -0.23900
C500        C  0.65568136  0.84021761  0.07018906     0.18400
C501        C  0.66809970  0.85792603  0.10700049     0.15600
C502        C  0.66494369  0.85183181  0.15857819    -0.18900
C503        C  0.68248197  0.88220078  0.09187046    -0.20700
C504        C  0.68356422  0.88959749  0.04087222    -0.13300
C505        C  0.67076471  0.87263105  0.00396244     0.03400
C506        C  0.65755786  0.84742842  0.01852147    -0.25400
H507        H  0.62430542  0.79286079  0.14914916     0.08500
H508        H  0.63089597  0.80252844  0.05850856     0.12100
H509        H  0.67386722  0.86597793  0.18646116     0.12000
H510        H  0.69211799  0.89594966  0.11960829     0.11800
H511        H  0.69408350  0.90896323  0.03021965     0.12300
H512        H  0.64747458  0.83438303  0.99015224     0.14300
C513        C  0.64786836  0.85479283  0.50293763    -0.05800
C514        C  0.63114826  0.84116803  0.53966652    -0.05700
C515        C  0.63832019  0.84284425  0.59084187    -0.23900
C516        C  0.66183243  0.85884479  0.60590396     0.18400
C517        C  0.67899749  0.87222959  0.56892397     0.15600
C518        C  0.67225170  0.86958314  0.51752551    -0.18900
C519        C  0.70185500  0.88906530  0.58404821    -0.20700
C520        C  0.70694861  0.89356344  0.63542889    -0.13300
C521        C  0.68968354  0.88075389  0.67237695     0.03400
C522        C  0.66765456  0.86274750  0.65737933    -0.25400
H523        H  0.61239676  0.82939878  0.52871240     0.08500
H524        H  0.62497796  0.83243782  0.61865961     0.12100
H525        H  0.68502326  0.88023532  0.48911901     0.12000
H526        H  0.71517612  0.89947178  0.55620299     0.11800
H527        H  0.72417858  0.90739269  0.64628930     0.12300
H528        H  0.65408457  0.85299879  0.68566510     0.14300
C529        C  0.58679710  0.88960196  0.82213486    -0.05800
C530        C  0.56790383  0.91252111  0.81812585    -0.05700
C531        C  0.54035589  0.90895865  0.79862140    -0.23900
C532        C  0.53110910  0.88233020  0.78331951     0.18400
C533        C  0.54944805  0.85895547  0.78970748     0.15600
C534        C  0.57715578  0.86275198  0.80866441    -0.18900
C535        C  0.54005626  0.83219109  0.77586016    -0.20700
C536        C  0.51313552  0.82868956  0.75417420    -0.13300
C537        C  0.49524596  0.85189887  0.74519529     0.03400
C538        C  0.50418126  0.87872145  0.76062387    -0.25400
H539        H  0.57477714  0.93342491  0.82835081     0.08500
H540        H  0.52652292  0.92709130  0.79457144     0.12100
H541        H  0.59136662  0.84485108  0.81219786     0.12000
H542        H  0.55374276  0.81402292  0.78090662     0.11800
H543        H  0.50673574  0.80785820  0.74259646     0.12300
H544        H  0.49038509  0.89671991  0.75440841     0.14300
C545        C  0.09058707  0.64649807  0.72561738    -0.05800
C546        C  0.07151761  0.62410798  0.73251494    -0.05700
C547        C  0.04364887  0.62904144  0.74896128    -0.23900
C548        C  0.03429724  0.65646954  0.75845997     0.18400
C549        C  0.05275635  0.67929454  0.74903317     0.15600
C550        C  0.08081793  0.67416370  0.73282053    -0.18900
C551        C  0.04308471  0.70676642  0.75757945    -0.20700
C552        C  0.01594476  0.71147271  0.77796748    -0.13300
C553        C  0.99818536  0.68876724  0.79040252     0.03400
C554        C  0.00718761  0.66135050  0.77906178    -0.25400
H555        H  0.07841532  0.60264968  0.72670985     0.08500
H556        H  0.02963381  0.61134146  0.75545059     0.12100
H557        H  0.09515922  0.69165572  0.72663242     0.12000
H558        H  0.05682348  0.72454496  0.75000048     0.11800
H559        H  0.00938948  0.73277955  0.78622903     0.12300
H560        H  0.99342659  0.64372117  0.78777947     0.14300
C561        C  0.83837835  0.77414372  0.88151797    -0.05800
C562        C  0.81341939  0.76902147  0.90961631    -0.05700
C563        C  0.79110284  0.78845710  0.90994286    -0.23900
C564        C  0.79308941  0.81328705  0.88160399     0.18400
C565        C  0.81850916  0.81942919  0.85501133     0.15600
C566        C  0.84120217  0.79993317  0.85562220    -0.18900
C567        C  0.82016634  0.84433068  0.82645310    -0.20700
C568        C  0.79644890  0.86225587  0.82245841    -0.13300
C569        C  0.77067037  0.85559748  0.84699827     0.03400
C570        C  0.76954946  0.83141029  0.87772231    -0.25400
H571        H  0.81074534  0.74945670  0.93010447     0.08500
H572        H  0.77182186  0.78354412  0.93083032     0.12100
H573        H  0.86023128  0.80406179  0.83346608     0.12000
H574        H  0.83949574  0.84951031  0.80594123     0.11800
H575        H  0.79796896  0.88078024  0.79869983     0.12300
H576        H  0.74996269  0.82611051  0.89740492     0.14300
C577        C  0.86706288  0.66213574  0.02148573    -0.05800
C578        C  0.83896088  0.65257360  0.02784742    -0.05700
C579        C  0.82809683  0.64773831  0.07635684    -0.23900
C580        C  0.84506886  0.65300701  0.11898279     0.18400
C581        C  0.87325655  0.66304226  0.11244825     0.15600
C582        C  0.88418591  0.66711354  0.06384893    -0.18900
C583        C  0.89009876  0.66913767  0.15458416    -0.20700
C584        C  0.87921586  0.66519711  0.20296889    -0.13300
C585        C  0.85144018  0.65476670  0.21010862     0.03400
C586        C  0.83439417  0.64856114  0.16798542    -0.25400
H587        H  0.82549495  0.64865636  0.99524409     0.08500
H588        H  0.80645213  0.64016734  0.08053145     0.12100
H589        H  0.90573914  0.67491226  0.05897725     0.12000
H590        H  0.91166746  0.67690925  0.15015312     0.11800
H591        H  0.89292397  0.66972005  0.23499710     0.12300
H592        H  0.81297866  0.64055526  0.17334796     0.14300
C593        C  0.87806623  0.70329603  0.70275939    -0.05800
C594        C  0.88548554  0.72292774  0.66534650    -0.05700
C595        C  0.88311687  0.71592332  0.61409192    -0.23900
C596        C  0.87419103  0.68892997  0.60013867     0.18400
C597        C  0.86669206  0.66921511  0.63793505     0.15600
C598        C  0.86813317  0.67670578  0.68871211    -0.18900
C599        C  0.85876129  0.64192500  0.62466370    -0.20700
C600        C  0.85873507  0.63399434  0.57405023    -0.13300
C601        C  0.86604460  0.65340324  0.53618341     0.03400
C602        C  0.87336344  0.68100343  0.54921039    -0.25400
H603        H  0.89325635  0.74349532  0.67575234     0.08500
H604        H  0.88898329  0.73124428  0.58554591     0.12100
H605        H  0.86288668  0.66123138  0.71746704     0.12000
H606        H  0.85301712  0.62665255  0.65339358     0.11800
H607        H  0.85260777  0.61276033  0.56442665     0.12300
H608        H  0.87907564  0.69598386  0.51992791     0.14300
C609        C  0.84982379  0.50589325  0.77543665    -0.05800
C610        C  0.82946464  0.51858431  0.80720063    -0.05700
C611        C  0.83461781  0.54476543  0.82869147    -0.23900
C612        C  0.86027687  0.55876357  0.81902423     0.18400
C613        C  0.88148862  0.54580584  0.78897478     0.15600
C614        C  0.87612281  0.51946642  0.76729372    -0.18900
C615        C  0.90742001  0.55972905  0.78033243    -0.20700
C616        C  0.91199187  0.58647567  0.80044662    -0.13300
C617        C  0.89049391  0.59984391  0.82858438     0.03400
C618        C  0.86481312  0.58574706  0.83818539    -0.25400
H619        H  0.80908735  0.50866494  0.81432079     0.08500
H620        H  0.81827258  0.55431849  0.85206638     0.12100
H621        H  0.89212374  0.50991811  0.74315555     0.12000
H622        H  0.92400392  0.55008103  0.75762505     0.11800
H623        H  0.93197114  0.59705888  0.79284611     0.12300
H624        H  0.84834820  0.59584706  0.86059556     0.14300
C625        C  0.99396747  0.35120286  0.28964538    -0.05800
C626        C  0.01017897  0.32875252  0.30934401    -0.05700
C627        C  0.03787429  0.33319560  0.32792844    -0.23900
C628        C  0.04984168  0.36019878  0.32739302     0.18400
C629        C  0.03317881  0.38306211  0.30997055     0.15600
C630        C  0.00549653  0.37844618  0.29142607    -0.18900
C631        C  0.04472446  0.41015425  0.31002367    -0.20700
C632        C  0.07264046  0.41462040  0.32662658    -0.13300
C633        C  0.08979693  0.39207014  0.34279022     0.03400
C634        C  0.07822982  0.36478017  0.34315053    -0.25400
H635        H  0.00198892  0.30754750  0.30820072     0.08500
H636        H  0.05018902  0.31539720  0.34151405     0.12100
H637        H  0.99328210  0.39605357  0.27668391     0.12000
H638        H  0.03222514  0.42791358  0.29678291     0.11800
H639        H  0.08109340  0.43574246  0.32572788     0.12300
H640        H  0.09122604  0.34724234  0.35588081     0.14300
C641        C  0.87569128  0.36539343  0.03596250    -0.05800
C642        C  0.89367057  0.35419598  0.99848934    -0.05700
C643        C  0.88618230  0.35593455  0.94735056    -0.23900
C644        C  0.86083394  0.36941546  0.93273899     0.18400
C645        C  0.84267419  0.38096400  0.97010476     0.15600
C646        C  0.84999374  0.37848904  0.02158573    -0.18900
C647        C  0.81780271  0.39524526  0.95524184    -0.20700
C648        C  0.81122879  0.39843954  0.90383074    -0.13300
C649        C  0.82909213  0.38692896  0.86642608     0.03400
C650        C  0.85372254  0.37210156  0.88129463    -0.25400
H651        H  0.91345242  0.34380237  0.00885761     0.08500
H652        H  0.90038072  0.34704072  0.91921490     0.12100
H653        H  0.83613495  0.38736009  0.05030373     0.12000
H654        H  0.80371615  0.40437015  0.98330207     0.11800
H655        H  0.79221469  0.41008297  0.89329388     0.12300
H656        H  0.86795347  0.36358014  0.85279642     0.14300
C657        C  0.86623951  0.33556653  0.36445734    -0.05800
C658        C  0.87173779  0.31473397  0.40108757    -0.05700
C659        C  0.86717782  0.32013361  0.45259292    -0.23900
C660        C  0.85788896  0.34674387  0.46827431     0.18400
C661        C  0.85189221  0.36760337  0.43138529     0.15600
C662        C  0.85548392  0.36168644  0.37985141    -0.18900
C663        C  0.84364137  0.39451523  0.44659076    -0.20700
C664        C  0.84238164  0.40107686  0.49791879    -0.13300
C665        C  0.84873477  0.38073167  0.53505360     0.03400
C666        C  0.85568462  0.35328405  0.52009932    -0.25400
H667        H  0.87998887  0.29442309  0.38990715     0.08500
H668        H  0.87189106  0.30386988  0.48020269     0.12100
H669        H  0.85155696  0.37801824  0.35191342     0.12000
H670        H  0.83897950  0.41071824  0.41881400     0.11800
H671        H  0.83657594  0.42226523  0.50867242     0.12300
H672        H  0.86070440  0.33754523  0.54855622     0.14300
C673        C  0.88987315  0.43910635  0.22716779    -0.05800
C674        C  0.91347933  0.45368263  0.24639044    -0.05700
C675        C  0.91011955  0.48057039  0.26651909    -0.23900
C676        C  0.88317025  0.49350161  0.26698750     0.18400
C677        C  0.85948198  0.47944806  0.24592993     0.15600
C678        C  0.86293537  0.45225079  0.22655931    -0.18900
C679        C  0.83266223  0.49263216  0.24555916    -0.20700
C680        C  0.82913201  0.51913767  0.26729053    -0.13300
C681        C  0.85230963  0.53284134  0.29017121     0.03400
C682        C  0.87941358  0.51998581  0.28910132    -0.25400
H683        H  0.93436755  0.44387539  0.24743854     0.08500
H684        H  0.92852815  0.49109307  0.28235863     0.12100
H685        H  0.84464638  0.44120739  0.21138017     0.12000
H686        H  0.81430006  0.48223250  0.22927974     0.11800
H687        H  0.80803109  0.52847979  0.26771993     0.12300
H688        H  0.89753791  0.53036161  0.30629166     0.14300
C689        C  0.74355619  0.04696722  0.07996952    -0.05800
C690        C  0.74817034  0.01995379  0.09977087    -0.05700
C691        C  0.74994921  0.99691196  0.06732919    -0.23900
C692        C  0.74713191  0.00082241  0.01483741     0.18400
C693        C  0.74629217  0.02840195  0.99462673     0.15600
C694        C  0.74450613  0.05135725  0.02746289    -0.18900
C695        C  0.74387143  0.03243966  0.94217014    -0.20700
C696        C  0.73896269  0.00956352  0.91067396    -0.13300
C697        C  0.73628944  0.98256613  0.93132605     0.03400
C698        C  0.74192380  0.97792367  0.98288763    -0.25400
H699        H  0.74714714  0.01630120  0.14032428     0.08500
H700        H  0.75106218  0.97598556  0.08345253     0.12100
H701        H  0.74059502  0.07221471  0.01229225     0.12000
H702        H  0.74356003  0.05338452  0.92602370     0.11800
H703        H  0.73451546  0.01328520  0.87085691     0.12300
H704        H  0.73968127  0.95700006  0.99868911     0.14300
C705        C  0.67689654  0.02633642  0.25041982    -0.05800
C706        C  0.70029428  0.00855702  0.26020288    -0.05700
C707        C  0.69624289  0.98141160  0.27892866    -0.23900
C708        C  0.66869220  0.97158196  0.28915475     0.18400
C709        C  0.64498485  0.98957764  0.28145287     0.15600
C710        C  0.64917639  0.01674817  0.26138455    -0.18900
C711        C  0.61752217  0.97983760  0.29317613    -0.20700
C712        C  0.61354087  0.95237865  0.31100422    -0.13300
C713        C  0.63687122  0.93393468  0.31666465     0.03400
C714        C  0.66447992  0.94389932  0.30616758    -0.25400
H715        H  0.72179669  0.01529084  0.25138316     0.08500
H716        H  0.71467045  0.96796453  0.28474384     0.12100
H717        H  0.63099118  0.03029100  0.25396246     0.12000
H718        H  0.59908113  0.99334062  0.28801873     0.11800
H719        H  0.59205362  0.94529859  0.31893814     0.12300
H720        H  0.68271014  0.93006098  0.31101201     0.14300
C721        C  0.83695145  0.26564690  0.17582546    -0.05800
C722        C  0.81077428  0.27348442  0.15330502    -0.05700
C723        C  0.78940507  0.25380782  0.14478977    -0.23900
C724        C  0.79359170  0.22573881  0.15856379     0.18400
C725        C  0.82012038  0.21713635  0.17909572     0.15600
C726        C  0.84174454  0.23713038  0.18744241    -0.18900
C727        C  0.82406282  0.18888110  0.19266409    -0.20700
C728        C  0.80151293  0.16977612  0.18850751    -0.13300
C729        C  0.77458690  0.17852723  0.17053775     0.03400
C730        C  0.77119249  0.20644891  0.15405584    -0.25400
H731        H  0.80635661  0.29514289  0.14337436     0.08500
H732        H  0.76927008  0.26073868  0.12870017     0.12100
H733        H  0.86174722  0.23067857  0.20464246     0.12000
H734        H  0.84427597  0.18175054  0.20810612     0.11800
H735        H  0.80485196  0.14840726  0.20137727     0.12300
H736        H  0.75068827  0.21357963  0.13979195     0.14300
C737        C  0.65274997  0.19975762  0.83809266    -0.05800
C738        C  0.64397156  0.21853334  0.87599878    -0.05700
C739        C  0.64842431  0.21213524  0.92729695    -0.23900
C740        C  0.66091332  0.18646693  0.94159085     0.18400
C741        C  0.66995473  0.16755293  0.90361472     0.15600
C742        C  0.66633792  0.17456758  0.85229552    -0.18900
C743        C  0.68142732  0.14144025  0.91756268    -0.20700
C744        C  0.68297709  0.13364502  0.96857385    -0.13300
C745        C  0.67378051  0.15208772  0.00667880     0.03400
C746        C  0.66348913  0.17884424  0.99301536    -0.25400
H747        H  0.63345620  0.23804550  0.86591472     0.08500
H748        H  0.64129419  0.22688509  0.95582753     0.12100
H749        H  0.67278504  0.15970703  0.82338907     0.12000
H750        H  0.68846636  0.12670087  0.88892984     0.11800
H751        H  0.69129484  0.11308030  0.97834147     0.12300
H752        H  0.65623501  0.19313908  0.02223133     0.14300
C753        C  0.65171945  0.17502241  0.50860387    -0.05800
C754        C  0.63156580  0.18317988  0.47187957    -0.05700
C755        C  0.63783710  0.18095542  0.42041002    -0.23900
C756        C  0.66408062  0.16979790  0.40487882     0.18400
C757        C  0.68475810  0.16204169  0.44154277     0.15600
C758        C  0.67867082  0.16531666  0.49328852    -0.18900
C759        C  0.71059901  0.14997966  0.42583200    -0.20700
C760        C  0.71534684  0.14447158  0.37451389    -0.13300
C761        C  0.69465424  0.15164545  0.33803420     0.03400
C762        C  0.66942518  0.16509482  0.35340096    -0.25400
H763        H  0.61081068  0.19110099  0.48310054     0.08500
H764        H  0.62180341  0.18707422  0.39280795     0.12100
H765        H  0.69423555  0.15893840  0.52157056     0.12000
H766        H  0.72671354  0.14395607  0.45334090     0.11800
H767        H  0.73509009  0.13435430  0.36335548     0.12300
H768        H  0.65327030  0.17056825  0.32554380     0.14300
C769        C  0.59157219  0.13649300  0.18909393    -0.05800
C770        C  0.57543730  0.11431070  0.20941205    -0.05700
C771        C  0.54785517  0.11904940  0.22806483    -0.23900
C772        C  0.53570318  0.14599845  0.22609512     0.18400
C773        C  0.55115658  0.16810107  0.20316842     0.15600
C774        C  0.57900384  0.16327088  0.18515049    -0.18900
C775        C  0.53884274  0.19488501  0.20010053    -0.20700
C776        C  0.51215960  0.20013958  0.22184137    -0.13300
C777        C  0.49713101  0.17875553  0.24729478     0.03400
C778        C  0.50881985  0.15144086  0.24802849    -0.25400
H779        H  0.58460758  0.09348851  0.21273515     0.08500
H780        H  0.53628390  0.10175216  0.24506945     0.12100
H781        H  0.59109379  0.18045261  0.16885506     0.12000
H782        H  0.55019502  0.21200561  0.18205560     0.11800
H783        H  0.50371929  0.22130178  0.22008716     0.12300
H784        H  0.49749675  0.13462434  0.26706527     0.14300
C785        C  0.36194173  0.00472758  0.25349961    -0.05800
C786        C  0.39050038  0.00778110  0.26887869    -0.05700
C787        C  0.40014659  0.03324503  0.28860720    -0.23900
C788        C  0.38159651  0.05634128  0.29168389     0.18400
C789        C  0.35270696  0.05319248  0.27711417     0.15600
C790        C  0.34294554  0.02727619  0.25917003    -0.18900
C791        C  0.33430152  0.07633232  0.27857953    -0.20700
C792        C  0.34445903  0.10252520  0.29318543    -0.13300
C793        C  0.37321530  0.10617005  0.30723098     0.03400
C794        C  0.39160428  0.08274013  0.30724998    -0.25400
H795        H  0.40550389  0.99061829  0.26445913     0.08500
H796        H  0.42234840  0.03517933  0.29957960     0.12100
H797        H  0.32104422  0.02521011  0.24637329     0.12000
H798        H  0.31213492  0.07431605  0.26741693     0.11800
H799        H  0.32966403  0.12003373  0.29319613     0.12300
H800        H  0.41378911  0.08515387  0.31806072     0.14300
C801        C  0.35844390  0.88892445  0.00059568    -0.05800
C802        C  0.34745990  0.90644848  0.96237505    -0.05700
C803        C  0.34777532  0.89775717  0.91205045    -0.23900
C804        C  0.35963657  0.87170388  0.89928543     0.18400
C805        C  0.37099218  0.85401137  0.93747589     0.15600
C806        C  0.36988186  0.86257173  0.98807120    -0.18900
C807        C  0.38385483  0.82844276  0.92418637    -0.20700
C808        C  0.38606842  0.82078541  0.87325784    -0.13300
C809        C  0.37469251  0.83825461  0.83529689     0.03400
C810        C  0.36110043  0.86346114  0.84873413    -0.25400
H811        H  0.33832194  0.92670749  0.97156380     0.08500
H812        H  0.33910558  0.91156250  0.88304428     0.12100
H813        H  0.37858270  0.84908042  0.01756130     0.12000
H814        H  0.39281211  0.81473113  0.95304668     0.11800
H815        H  0.39684177  0.80141565  0.86347681     0.12300
H816        H  0.35284642  0.87743338  0.81955054     0.14300
C817        C  0.34346301  0.88180241  0.32785273    -0.05800
C818        C  0.36783192  0.86481043  0.33401591    -0.05700
C819        C  0.37885703  0.85953410  0.38207680    -0.23900
C820        C  0.36545081  0.87089145  0.42465702     0.18400
C821        C  0.34024069  0.88709073  0.41898393     0.15600
C822        C  0.32953995  0.89266363  0.37048939    -0.18900
C823        C  0.32640777  0.89771837  0.46189251    -0.20700
C824        C  0.33761448  0.89249422  0.50998673    -0.13300
C825        C  0.36308032  0.87719086  0.51544699     0.03400
C826        C  0.37693886  0.86642123  0.47282144    -0.25400
H827        H  0.37908907  0.85650288  0.30146636     0.08500
H828        H  0.39806522  0.84694720  0.38587389     0.12100
H829        H  0.31069175  0.90570759  0.36586279     0.12000
H830        H  0.30700093  0.91000963  0.45825572     0.11800
H831        H  0.32669161  0.90077331  0.54291150     0.12300
H832        H  0.39634902  0.85416608  0.47731904     0.14300
C833        C  0.52855063  0.85267623  0.25456940    -0.05800
C834        C  0.51256842  0.83113023  0.23214729    -0.05700
C835        C  0.48643498  0.83701069  0.20893333    -0.23900
C836        C  0.47584050  0.86453051  0.20758717     0.18400
C837        C  0.49222562  0.88657939  0.22810470     0.15600
C838        C  0.51847840  0.88052050  0.25134834    -0.18900
C839        C  0.48165394  0.91416043  0.22627083    -0.20700
C840        C  0.45474538  0.91972983  0.20546133    -0.13300
C841        C  0.43793725  0.89775012  0.18669910     0.03400
C842        C  0.44879365  0.87024813  0.18731018    -0.25400
H843        H  0.51980130  0.80954887  0.23396949     0.08500
H844        H  0.47418781  0.81990626  0.19304704     0.12100
H845        H  0.53063871  0.89742045  0.26817663     0.12000
H846        H  0.49394236  0.93132990  0.24182253     0.11800
H847        H  0.44660221  0.94102595  0.20579818     0.12300
H848        H  0.43593356  0.85320083  0.17271773     0.14300
C849        C  0.05115371  0.74223646  0.10241213    -0.05800
C850        C  0.06067186  0.75329310  0.05608104    -0.05700
C851        C  0.04125915  0.75829920  0.01659877    -0.23900
C852        C  0.01219215  0.75205026  0.02305754     0.18400
C853        C  0.00232095  0.74306918  0.07118544     0.15600
C854        C  0.02188740  0.73830965  0.11053593    -0.18900
C855        C  0.97346102  0.73646027  0.07786044    -0.20700
C856        C  0.95521128  0.73568245  0.03612908    -0.13300
C857        C  0.96538832  0.74201350  0.98739173     0.03400
C858        C  0.99342631  0.75184002  0.98135462    -0.25400
H859        H  0.08327052  0.75627718  0.04938696     0.08500
H860        H  0.04922093  0.76536785  0.98015770     0.12100
H861        H  0.01463872  0.72960785  0.14636519     0.12000
H862        H  0.96553271  0.72973029  0.11454681     0.11800
H863        H  0.93377989  0.72764967  0.04114774     0.12300
H864        H  0.00149491  0.75609092  0.94355876     0.14300
C865        C  0.94498407  0.63624389  0.35359980    -0.05800
C866        C  0.96142203  0.61393732  0.33452490    -0.05700
C867        C  0.98886999  0.61880419  0.31537624    -0.23900
C868        C  0.00026293  0.64602107  0.31522774     0.18400
C869        C  0.98444671  0.66814277  0.33722074     0.15600
C870        C  0.95707259  0.66311375  0.35625540    -0.18900
C871        C  0.99569783  0.69526792  0.33795891    -0.20700
C872        C  0.02163208  0.70088610  0.31435837    -0.13300
C873        C  0.03689077  0.67949834  0.28948715     0.03400
C874        C  0.02653121  0.65180451  0.29163040    -0.25400
H875        H  0.95260824  0.59300037  0.33244851     0.08500
H876        H  0.00077689  0.60148871  0.29920963     0.12100
H877        H  0.94478935  0.68039107  0.37176618     0.12000
H878        H  0.98397425  0.71236563  0.35527791     0.11800
H879        H  0.02920210  0.72232962  0.31409746     0.12300
H880        H  0.03820940  0.63503576  0.27319970     0.14300
C881        C  0.25764527  0.85840438  0.15663800    -0.05800
C882        C  0.26060183  0.83607786  0.12217911    -0.05700
C883        C  0.24089364  0.81427110  0.12104831    -0.23900
C884        C  0.21765565  0.81424749  0.15427016     0.18400
C885        C  0.21296395  0.83756117  0.18624958     0.15600
C886        C  0.23294175  0.85968206  0.18706728    -0.18900
C887        C  0.18923363  0.83747793  0.21875847    -0.20700
C888        C  0.17150924  0.81386765  0.22178282    -0.13300
C889        C  0.17732047  0.78983988  0.19266344     0.03400
C890        C  0.19991909  0.79063269  0.15771136    -0.25400
H891        H  0.27904605  0.83469312  0.09755092     0.08500
H892        H  0.24454499  0.79680290  0.09566966     0.12100
H893        H  0.23023015  0.87677423  0.21362374     0.12000
H894        H  0.18498713  0.85522326  0.24318901     0.11800
H895        H  0.15408976  0.81389155  0.24876301     0.12300
H896        H  0.20434903  0.77243664  0.13442189     0.14300
C897        C  0.19903102  0.66030234  0.86940043    -0.05800
C898        C  0.21953730  0.65151757  0.90513695    -0.05700
C899        C  0.21577538  0.65702823  0.95683631    -0.23900
C900        C  0.19101990  0.67070516  0.97386268     0.18400
C901        C  0.17070398  0.68030037  0.93795321     0.15600
C902        C  0.17516021  0.67561949  0.88604928    -0.18900
C903        C  0.14546838  0.69308176  0.95463407    -0.20700
C904        C  0.13963317  0.69494714  0.00635488    -0.13300
C905        C  0.15924800  0.68484453  0.04246598     0.03400
C906        C  0.18545387  0.67364199  0.02609110    -0.25400
H907        H  0.23827222  0.63994424  0.89314210     0.08500
H908        H  0.23166042  0.64959893  0.98363771     0.12100
H909        H  0.15912394  0.68238225  0.85890979     0.12000
H910        H  0.12971180  0.70062190  0.92767912     0.11800
H911        H  0.11946488  0.70396021  0.01827402     0.12300
H912        H  0.20060573  0.66569566  0.05377707     0.14300
C913        C  0.14933873  0.70713044  0.37243455    -0.05800
C914        C  0.13335581  0.72157622  0.40925653    -0.05700
C915        C  0.13436420  0.71336376  0.46021438    -0.23900
C916        C  0.15090422  0.69016815  0.47511001     0.18400
C917        C  0.16665076  0.67521609  0.43823332     0.15600
C918        C  0.16615022  0.68405980  0.38743635    -0.18900
C919        C  0.18218080  0.65126150  0.45254454    -0.20700
C920        C  0.18226114  0.64227390  0.50298548    -0.13300
C921        C  0.16741150  0.65744879  0.54009133     0.03400
C922        C  0.15176645  0.68145153  0.52607462    -0.25400
H923        H  0.11980473  0.73909171  0.39853878     0.08500
H924        H  0.12186226  0.72485613  0.48778681     0.12100
H925        H  0.17786979  0.67220556  0.35924480     0.12000
H926        H  0.19412972  0.63940021  0.42470750     0.11800
H927        H  0.19443711  0.62372967  0.51329793     0.12300
H928        H  0.13995717  0.69295824  0.55461567     0.14300
C929        C  0.15893639  0.60739794  0.23422796    -0.05800
C930        C  0.18584802  0.60419069  0.25760833    -0.05700
C931        C  0.19550176  0.57790866  0.27425820    -0.23900
C932        C  0.17846272  0.55405394  0.26839887     0.18400
C933        C  0.15139029  0.55677794  0.24501595     0.15600
C934        C  0.14188735  0.58333659  0.22775945    -0.18900
C935        C  0.13405138  0.53296463  0.24046276    -0.20700
C936        C  0.14292927  0.50706272  0.26043528    -0.13300
C937        C  0.16968230  0.50416681  0.28410206     0.03400
C938        C  0.18764724  0.52770840  0.28691028    -0.25400
H939        H  0.19956422  0.62212851  0.26335290     0.08500
H940        H  0.21623245  0.57632685  0.29237689     0.12100
H941        H  0.12108019  0.58529698  0.21003607     0.12000
H942        H  0.11322546  0.53453193  0.22271413     0.11800
H943        H  0.12867382  0.48927950  0.25808905     0.12300
H944        H  0.20812991  0.52585057  0.30585111     0.14300
C945        C  0.38696993  0.93990856  0.70860670    -0.05800
C946        C  0.40742868  0.95125641  0.74140387    -0.05700
C947        C  0.40344872  0.97801595  0.76179527    -0.23900
C948        C  0.37927178  0.99396022  0.74867302     0.18400
C949        C  0.35920309  0.98299037  0.71399789     0.15600
C950        C  0.36299127  0.95587048  0.69478389    -0.18900
C951        C  0.33548735  0.99917350  0.69969789    -0.20700
C952        C  0.33104968  0.02560996  0.72090589    -0.13300
C953        C  0.35007166  0.03619108  0.75726940     0.03400
C954        C  0.37448779  0.02041247  0.77027942    -0.25400
H955        H  0.42604947  0.93909046  0.75223753     0.08500
H956        H  0.41914065  0.98614696  0.78808609     0.12100
H957        H  0.34737351  0.94715593  0.66890669     0.12000
H958        H  0.32007119  0.99116846  0.67276778     0.11800
H959        H  0.31210891  0.03732025  0.71026420     0.12300
H960        H  0.38949985  0.02847980  0.79789379     0.14300
C961        C  0.28621410  0.05609819  0.93460478    -0.05800
C962        C  0.28081096  0.02927300  0.91513800    -0.05700
C963        C  0.27695374  0.00653389  0.94799683    -0.23900
C964        C  0.27836923  0.01052791  0.00056038     0.18400
C965        C  0.28004520  0.03809295  0.02013220     0.15600
C966        C  0.28392818  0.06077620  0.98686958    -0.18900
C967        C  0.28129786  0.04214571  0.07266568    -0.20700
C968        C  0.28477095  0.01913163  0.10500570    -0.13300
C969        C  0.28665135  0.99195293  0.08514802     0.03400
C970        C  0.28159539  0.98750809  0.03343932    -0.25400
H971        H  0.28250986  0.02539148  0.87480180     0.08500
H972        H  0.27523910  0.98561867  0.93235044     0.12100
H973        H  0.28798113  0.08155596  0.00179341     0.12000
H974        H  0.28218274  0.06310897  0.08831911     0.11800
H975        H  0.28892583  0.02276552  0.14486695     0.12300
H976        H  0.28342411  0.96648092  0.01817117     0.14300
C977        C  0.37209830  0.20613077  0.16921123    -0.05800
C978        C  0.34351535  0.20887130  0.15368542    -0.05700
C979        C  0.33525444  0.20097856  0.10475640    -0.23900
C980        C  0.35527920  0.18932016  0.07126656     0.18400
C981        C  0.38408514  0.18657011  0.08679876     0.15600
C982        C  0.39238287  0.19561798  0.13503535    -0.18900
C983        C  0.40396102  0.17375420  0.05466702    -0.20700
C984        C  0.39530830  0.16309177  0.00804487    -0.13300
C985        C  0.36686486  0.16582616  0.99203020     0.03400
C986        C  0.34695234  0.17947794  0.02327742    -0.25400
H987        H  0.32754372  0.21684783  0.17961759     0.08500
H988        H  0.31306906  0.20315305  0.09370689     0.12100
H989        H  0.41438063  0.19294241  0.14706657     0.12000
H990        H  0.42607138  0.17138463  0.06609714     0.11800
H991        H  0.41093655  0.15283292  0.98411685     0.12300
H992        H  0.32492034  0.18142524  0.01107659     0.14300
C993        C  0.33156834  0.15886958  0.66996110    -0.05800
C994        C  0.30959815  0.15607181  0.63403643    -0.05700
C995        C  0.31499349  0.16076982  0.58244180    -0.23900
C996        C  0.34258489  0.16765993  0.56587316     0.18400
C997        C  0.36478993  0.17021819  0.60191134     0.15600
C998        C  0.35904678  0.16622426  0.65350810    -0.18900
C999        C  0.39256237  0.17616855  0.58576068    -0.20700
C1000       C  0.39849049  0.17924191  0.53430101    -0.13300
C1001       C  0.37668883  0.17685943  0.49790367     0.03400
C1002       C  0.34860133  0.17143753  0.51400939    -0.25400
H1003       H  0.28828520  0.15029323  0.64590126     0.08500
H1004       H  0.29770211  0.15855973  0.55542973     0.12100
H1005       H  0.37629672  0.16790660  0.68080990     0.12000
H1006       H  0.40982779  0.17809244  0.61292934     0.11800
H1007       H  0.42024507  0.18358582  0.52291948     0.12300
H1008       H  0.33168584  0.16932057  0.48619954     0.14300
C1009       C  0.43283356  0.14065346  0.80921337    -0.05800
C1010       C  0.44708641  0.11869236  0.78423821    -0.05700
C1011       C  0.47474099  0.12241007  0.76561807    -0.23900
C1012       C  0.48878009  0.14807087  0.77209958     0.18400
C1013       C  0.47501746  0.16998994  0.79861577     0.15600
C1014       C  0.44709011  0.16621297  0.81671919    -0.18900
C1015       C  0.48920601  0.19551498  0.80561966    -0.20700
C1016       C  0.51623471  0.19976583  0.78460818    -0.13300
C1017       C  0.52964528  0.17856312  0.75617849     0.03400
C1018       C  0.51599063  0.15244079  0.75126660    -0.25400
H1019       H  0.43655351  0.09881324  0.77799183     0.08500
H1020       H  0.48498891  0.10533628  0.74552637     0.12100
H1021       H  0.43641846  0.18318031  0.83645594     0.12000
H1022       H  0.47910337  0.21246134  0.82627722     0.11800
H1023       H  0.52622288  0.22004283  0.78927681     0.12300
H1024       H  0.52603120  0.13580366  0.72968357     0.14300
C1025       C  0.92927347  0.39325173  0.72492196    -0.05800
C1026       C  0.94667765  0.41588524  0.73902295    -0.05700
C1027       C  0.97397793  0.41125108  0.75875405    -0.23900
C1028       C  0.98467666  0.38389735  0.76409276     0.18400
C1029       C  0.96774167  0.36091167  0.74902739     0.15600
C1030       C  0.94003514  0.36570439  0.73000852    -0.18900
C1031       C  0.97879551  0.33358597  0.75367759    -0.20700
C1032       C  0.00617075  0.32908370  0.77368673    -0.13300
C1033       C  0.02285935  0.35179213  0.79004549     0.03400
C1034       C  0.01191298  0.37918578  0.78480627    -0.25400
H1035       H  0.93891043  0.43725309  0.73590247     0.08500
H1036       H  0.98669672  0.42911318  0.77008736     0.12100
H1037       H  0.92690361  0.34803590  0.71912460     0.12000
H1038       H  0.96616012  0.31567063  0.74233708     0.11800
H1039       H  0.01389095  0.30776250  0.77803373     0.12300
H1040       H  0.02452441  0.39689009  0.79734733     0.14300
C1041       C  0.97881091  0.28908856  0.11550983    -0.05800
C1042       C  0.00639296  0.28887303  0.13630257    -0.05700
C1043       C  0.03030804  0.28673270  0.10494608    -0.23900
C1044       C  0.02687309  0.28491394  0.05228163     0.18400
C1045       C  0.99912679  0.28196076  0.03166787     0.15600
C1046       C  0.97516567  0.28406355  0.06356582    -0.18900
C1047       C  0.99574159  0.28001598  0.97898348    -0.20700
C1048       C  0.01916258  0.28394218  0.94692430    -0.13300
C1049       C  0.04618966  0.28990360  0.96706748     0.03400
C1050       C  0.05026788  0.28900271  0.01975278    -0.25400
H1051       H  0.00949200  0.29318838  0.17624655     0.08500
H1052       H  0.05137796  0.28873087  0.12147904     0.12100
H1053       H  0.95389142  0.28478542  0.04737660     0.12000
H1054       H  0.97471963  0.27753748  0.96249099     0.11800
H1055       H  0.01562376  0.28504224  0.90634599     0.12300
H1056       H  0.07103892  0.29406234  0.03534046     0.14300
C1057       C  0.25065212  0.18237913  0.85139606    -0.05800
C1058       C  0.22302022  0.17328266  0.83866465    -0.05700
C1059       C  0.19943657  0.19124398  0.84416099    -0.23900
C1060       C  0.20302861  0.21857919  0.86272182     0.18400
C1061       C  0.23049730  0.22718415  0.87840624     0.15600
C1062       C  0.25397878  0.20912451  0.87275786    -0.18900
C1063       C  0.23434621  0.25417974  0.89761880    -0.20700
C1064       C  0.21167003  0.27315300  0.89841997    -0.13300
C1065       C  0.18450287  0.26569212  0.87991261     0.03400
C1066       C  0.18007443  0.23787546  0.86377842    -0.25400
H1067       H  0.21977875  0.15268013  0.82256506     0.08500
H1068       H  0.17854715  0.18404949  0.83242084     0.12100
H1069       H  0.27505535  0.21628078  0.88363844     0.12000
H1070       H  0.25518688  0.26099858  0.91040325     0.11800
H1071       H  0.21582566  0.29419387  0.91179165     0.12300
H1072       H  0.15932052  0.23169691  0.84958002     0.14300
C1073       C  0.14855435  0.36342479  0.03347867    -0.05800
C1074       C  0.12986897  0.35319362  0.07082491    -0.05700
C1075       C  0.13741298  0.35393793  0.12195372    -0.23900
C1076       C  0.16348559  0.36563844  0.13671065     0.18400
C1077       C  0.18254871  0.37589620  0.09942672     0.15600
C1078       C  0.17521178  0.37418243  0.04786428    -0.18900
C1079       C  0.20810385  0.38862629  0.11450834    -0.20700
C1080       C  0.21409262  0.39225122  0.16598900    -0.13300
C1081       C  0.19505195  0.38246355  0.20315541     0.03400
C1082       C  0.17018375  0.36838639  0.18823875    -0.25400
H1083       H  0.10937475  0.34447667  0.06034861     0.08500
H1084       H  0.12255129  0.34601914  0.15000030     0.12100
H1085       H  0.18963947  0.38221000  0.01918110     0.12000
H1086       H  0.22294835  0.39665449  0.08655030     0.11800
H1087       H  0.23338939  0.40316175  0.17680820     0.12300
H1088       H  0.15517354  0.36116074  0.21669562     0.14300
C1089       C  0.14830012  0.33996754  0.70344471    -0.05800
C1090       C  0.13808190  0.32135186  0.66648610    -0.05700
C1091       C  0.14146341  0.32733668  0.61489113    -0.23900
C1092       C  0.15461440  0.35231615  0.59934133     0.18400
C1093       C  0.16540603  0.37093814  0.63620649     0.15600
C1094       C  0.16266727  0.36440091  0.68785251    -0.18900
C1095       C  0.17777872  0.39632706  0.62089158    -0.20700
C1096       C  0.17867211  0.40360749  0.56959271    -0.13300
C1097       C  0.16787667  0.38532996  0.53264119     0.03400
C1098       C  0.15637639  0.35941369  0.54768697    -0.25400
H1099       H  0.12704960  0.30234272  0.67746681     0.08500
H1100       H  0.13306850  0.31281571  0.58718213     0.12100
H1101       H  0.17049401  0.37907050  0.71587352     0.12000
H1102       H  0.18617382  0.41083407  0.64863715     0.11800
H1103       H  0.18794842  0.42353603  0.55870281     0.12300
H1104       H  0.14789724  0.34527973  0.51937037     0.14300
C1105       C  0.17124881  0.53513313  0.78887727    -0.05800
C1106       C  0.19305676  0.52059357  0.81479076    -0.05700
C1107       C  0.18822216  0.49394162  0.83536289    -0.23900
C1108       C  0.16139601  0.48125482  0.83091894     0.18400
C1109       C  0.13886425  0.49599755  0.80698810     0.15600
C1110       C  0.14393376  0.52278887  0.78599455    -0.18900
C1111       C  0.11188393  0.48334432  0.80347115    -0.20700
C1112       C  0.10745404  0.45617829  0.82254933    -0.13300
C1113       C  0.13002668  0.44099522  0.84478778     0.03400
C1114       C  0.15691559  0.45386065  0.84916884    -0.25400
H1115       H  0.21429328  0.52934884  0.81751189     0.08500
H1116       H  0.20569405  0.48299318  0.85388507     0.12100
H1117       H  0.12682072  0.53366126  0.76628470     0.12000
H1118       H  0.09428936  0.49431817  0.78538529     0.11800
H1119       H  0.08661032  0.44669426  0.81849772     0.12300
H1120       H  0.17445622  0.44244737  0.86659982     0.14300
loop_ 
_geom_bond_atom_site_label_1 
_geom_bond_atom_site_label_2 
_geom_bond_distance 
_geom_bond_site_symmetry_2 
_ccdc_geom_bond_type 
Fe1          O17   2.068       .  S
Fe1           O7   2.041       .  S
Fe1          O14   2.057       .  S
Fe1           O6   2.062       .  S
Fe1          O12   1.980       .  S
Fe2           O5   2.061       .  S
Fe2           O9   2.063       .  S
Fe2          O13   2.081       .  S
Fe2          O18   2.055       .  S
Fe2          O12   1.970       .  S
Fe3          O21   2.078       .  S
Fe3           O8   2.088       .  S
Fe3          O15   2.094       .  S
Fe3           O4   2.076       .  S
Fe3          O12   1.990       .  S
O4           C11   1.275       .  A
O5           C19   1.269       .  A
O6           C11   1.273       .  A
O7           C10   1.263       .  A
O8           C20   1.273       .  A
O9           C22   1.270       .  A
C10          O15   1.271       .  A
C10        C1065   1.491       .  S
C11        C1089   1.481       .  S
O13          C16   1.268       .  A
O14          C16   1.264       .  A
C16        C1113   1.486       .  S
O17          C22   1.270       .  A
O18          C20   1.267       .  A
C19          O21   1.272       .  A
C19        C1049   1.469       .  S
C20        C1033   1.485       .  S
C22        C1073   1.473   1_556  S
Fe23         O39   2.091       .  S
Fe23         O29   2.053       .  S
Fe23         O36   2.062       .  S
Fe23         O28   2.075       .  S
Fe23         O34   1.954       .  S
Fe24         O27   2.068       .  S
Fe24         O31   2.055       .  S
Fe24         O35   2.074       .  S
Fe24         O40   2.057       .  S
Fe24         O34   1.951       .  S
Fe25         O43   2.060       .  S
Fe25         O30   2.081       .  S
Fe25         O37   2.081       .  S
Fe25         O26   2.067       .  S
Fe25         O34   1.968       .  S
O26          C33   1.270       .  A
O27          C41   1.269       .  A
O28          C33   1.272       .  A
O29          C32   1.269       .  A
O30          C42   1.273       .  A
O31          C44   1.269       .  A
C32          O37   1.272       .  A
C32         C993   1.478       .  S
C33        C1057   1.486       .  S
O35          C38   1.269       .  A
O36          C38   1.266       .  A
C38         C985   1.471       .  S
O39          C44   1.274       .  A
O40          C42   1.272       .  A
C41          O43   1.268       .  A
C41         C953   1.479       .  S
C42         C961   1.467       .  S
C44        C1009   1.480       .  S
Fe45         O61   2.091       .  S
Fe45         O51   2.065       .  S
Fe45         O58   2.057       .  S
Fe45         O50   2.088       .  S
Fe45         O56   1.962       .  S
Fe46         O49   2.083       .  S
Fe46         O53   2.060       .  S
Fe46         O57   2.091       .  S
Fe46         O62   2.063       .  S
Fe46         O56   1.963       .  S
Fe47         O65   2.064       .  S
Fe47         O52   2.067       .  S
Fe47         O59   2.069       .  S
Fe47         O48   2.053       .  S
Fe47         O56   1.971       .  S
O48          C55   1.272       .  A
O49          C63   1.273       .  A
O50          C55   1.279       .  A
O51          C54   1.265       .  A
O52          C64   1.269       .  A
O53          C66   1.273       .  A
C54          O59   1.264       .  A
C54         C889   1.486       .  S
C55         C913   1.480       .  S
O57          C60   1.270       .  A
O58          C60   1.264       .  A
C60         C929   1.497       .  S
O61          C66   1.277       .  A
O62          C64   1.268       .  A
C63          O65   1.269       .  A
C63         C849   1.467       .  S
C64         C873   1.482       .  S
C66         C905   1.477       .  S
Fe67         O83   2.046       .  S
Fe67         O73   2.046       .  S
Fe67         O80   2.049       .  S
Fe67         O72   2.040       .  S
Fe67         O78   1.966       .  S
Fe68         O71   2.044       .  S
Fe68         O75   2.074       .  S
Fe68         O79   2.056       .  S
Fe68         O84   2.067       .  S
Fe68         O78   1.960       .  S
Fe69         O87   2.093       .  S
Fe69         O74   2.063       .  S
Fe69         O81   2.053       .  S
Fe69         O70   2.100       .  S
Fe69         O78   1.979       .  S
O70          C77   1.273       .  A
O71          C85   1.263       .  A
O72          C77   1.265       .  A
O73          C76   1.267       .  A
O74          C86   1.269       .  A
O75          C88   1.268       .  A
C76          O81   1.270       .  A
C76         C817   1.464       .  S
C77         C881   1.488       .  S
O79          C82   1.268       .  A
O80          C82   1.266       .  A
C82         C801   1.464       .  S
O83          C88   1.264       .  A
O84          C86   1.272       .  A
C85          O87   1.273       .  A
C85         C785   1.474   1_565  S
C86         C969   1.461       .  S
C88         C841   1.474       .  S
Fe89        O105   2.071       .  S
Fe89         O95   2.062       .  S
Fe89        O102   2.069       .  S
Fe89         O94   2.062       .  S
Fe89        O100   1.984       .  S
Fe90         O93   2.073       .  S
Fe90         O97   2.069       .  S
Fe90        O101   2.071       .  S
Fe90        O106   2.053       .  S
Fe90        O100   1.972       .  S
Fe91        O109   2.071       .  S
Fe91         O96   2.069       .  S
Fe91        O103   2.067       .  S
Fe91         O92   2.068       .  S
Fe91        O100   1.987       .  S
O92          C99   1.267       .  A
O93         C107   1.270       .  A
O94          C99   1.267       .  A
O95          C98   1.272       .  A
O96         C108   1.268       .  A
O97         C110   1.267       .  A
C98         O103   1.273       .  A
C98         C761   1.474       .  S
C99         C729   1.488       .  S
O101        C104   1.272       .  A
O102        C104   1.270       .  A
C104        C745   1.478       .  S
O105        C110   1.267       .  A
O106        C108   1.268       .  A
C107        O109   1.270       .  A
C107        C705   1.483       .  S
C108        C689   1.462       .  S
C110        C769   1.485       .  S
Fe111       O127   2.073       .  S
Fe111       O117   2.039       .  S
Fe111       O124   2.049       .  S
Fe111       O116   2.064       .  S
Fe111       O122   1.978       .  S
Fe112       O115   2.056       .  S
Fe112       O119   2.060       .  S
Fe112       O123   2.071       .  S
Fe112       O128   2.050       .  S
Fe112       O122   1.965       .  S
Fe113       O131   2.074       .  S
Fe113       O118   2.103       .  S
Fe113       O125   2.097       .  S
Fe113       O114   2.067       .  S
Fe113       O122   1.988       .  S
O114        C121   1.272       .  A
O115        C129   1.267       .  A
O116        C121   1.272       .  A
O117        C120   1.264       .  A
O118        C130   1.277       .  A
O119        C132   1.270       .  A
C120        O125   1.273       .  A
C120        C721   1.490       .  S
C121        C657   1.475       .  S
O123        C126   1.266       .  A
O124        C126   1.262       .  A
C126        C673   1.477       .  S
O127        C132   1.272       .  A
O128        C130   1.268       .  A
C129        O131   1.269       .  A
C129       C1041   1.466       .  S
C130        C625   1.489       .  S
C132        C641   1.475       .  S
Fe133       O149   2.036       .  S
Fe133       O139   2.051       .  S
Fe133       O146   2.063       .  S
Fe133       O138   2.032       .  S
Fe133       O144   1.973       .  S
Fe134       O137   2.051       .  S
Fe134       O141   2.062       .  S
Fe134       O145   2.060       .  S
Fe134       O150   2.048       .  S
Fe134       O144   1.967       .  S
Fe135       O153   2.084       .  S
Fe135       O140   2.072       .  S
Fe135       O147   2.076       .  S
Fe135       O136   2.072       .  S
Fe135       O144   1.991       .  S
O136        C143   1.274       .  A
O137        C151   1.269       .  A
O138        C143   1.268       .  A
O139        C142   1.264       .  A
O140        C152   1.267       .  A
O141        C154   1.270       .  A
C142        O147   1.267       .  A
C142        C561   1.483       .  S
C143        C593   1.463       .  S
O145        C148   1.264       .  A
O146        C148   1.266       .  A
C148        C617   1.473       .  S
O149        C154   1.264       .  A
O150        C152   1.264       .  A
C151        O153   1.274       .  A
C151        C857   1.467       .  S
C152        C553   1.476       .  S
C154        C577   1.461   1_556  S
Fe155       O171   2.060       .  S
Fe155       O161   2.067       .  S
Fe155       O168   2.079       .  S
Fe155       O160   2.053       .  S
Fe155       O166   1.977       .  S
Fe156       O159   2.045       .  S
Fe156       O163   2.072       .  S
Fe156       O167   2.040       .  S
Fe156       O172   2.065       .  S
Fe156       O166   1.964       .  S
Fe157       O175   2.093       .  S
Fe157       O162   2.052       .  S
Fe157       O169   2.043       .  S
Fe157       O158   2.085       .  S
Fe157       O166   1.982       .  S
O158        C165   1.272       .  A
O159        C173   1.265       .  A
O160        C165   1.268       .  A
O161        C164   1.271       .  A
O162        C174   1.264       .  A
O163        C176   1.269       .  A
C164        O169   1.266       .  A
C164        C521   1.469       .  S
C165        C569   1.486       .  S
O167        C170   1.265       .  A
O168        C170   1.270       .  A
C170        C505   1.470   1_556  S
O171        C176   1.267       .  A
O172        C174   1.269       .  A
C173        O175   1.275       .  A
C173        C481   1.483   1_565  S
C174        C697   1.460       .  S
C176        C529   1.483       .  S
Fe177       O193   2.079       .  S
Fe177       O183   2.050       .  S
Fe177       O190   2.049       .  S
Fe177       O182   2.089       .  S
Fe177       O188   1.962       .  S
Fe178       O181   2.072       .  S
Fe178       O185   2.054       .  S
Fe178       O189   2.077       .  S
Fe178       O194   2.068       .  S
Fe178       O188   1.961       .  S
Fe179       O197   2.072       .  S
Fe179       O184   2.078       .  S
Fe179       O191   2.081       .  S
Fe179       O180   2.061       .  S
Fe179       O188   1.966       .  S
O180        C187   1.276       .  A
O181        C195   1.274       .  A
O182        C187   1.278       .  A
O183        C186   1.263       .  A
O184        C196   1.269       .  A
O185        C198   1.269       .  A
C186        O191   1.266       .  A
C186        C457   1.485       .  S
C187        C977   1.476       .  S
O189        C192   1.271       .  A
O190        C192   1.267       .  A
C192        C793   1.484       .  S
O193        C198   1.272       .  A
O194        C196   1.266       .  A
C195        O197   1.274       .  A
C195        C465   1.464       .  S
C196        C777   1.492       .  S
C198       C1001   1.479       .  S
Fe199       O215   2.062       .  S
Fe199       O205   2.080       .  S
Fe199       O212   2.080       .  S
Fe199       O204   2.047       .  S
Fe199       O210   1.967       .  S
Fe200       O203   2.058       .  S
Fe200       O207   2.073       .  S
Fe200       O211   2.060       .  S
Fe200       O216   2.067       .  S
Fe200       O210   1.951       .  S
Fe201       O219   2.109       .  S
Fe201       O206   2.071       .  S
Fe201       O213   2.057       .  S
Fe201       O202   2.091       .  S
Fe201       O210   1.977       .  S
O202        C209   1.270       .  A
O203        C217   1.267       .  A
O204        C209   1.264       .  A
O205        C208   1.277       .  A
O206        C218   1.270       .  A
O207        C220   1.268       .  A
C208        O213   1.274       .  A
C208       C1081   1.474       .  S
C209        C449   1.485       .  S
O211        C214   1.271       .  A
O212        C214   1.274       .  A
C214       C1097   1.476       .  S
O215        C220   1.264       .  A
O216        C218   1.270       .  A
C217        O219   1.275       .  A
C217        C937   1.486       .  S
C218        C433   1.465       .  S
C220        C633   1.484       .  S
Fe221       O237   2.068       .  S
Fe221       O227   2.071       .  S
Fe221       O234   2.075       .  S
Fe221       O226   2.058       .  S
Fe221       O232   1.980       .  S
Fe222       O225   2.056       .  S
Fe222       O229   2.067       .  S
Fe222       O233   2.052       .  S
Fe222       O238   2.056       .  S
Fe222       O232   1.968       .  S
Fe223       O241   2.065       .  S
Fe223       O228   2.072       .  S
Fe223       O235   2.064       .  S
Fe223       O224   2.062       .  S
Fe223       O232   1.985       .  S
O224        C231   1.264       .  A
O225        C239   1.265       .  A
O226        C231   1.265       .  A
O227        C230   1.275       .  A
O228        C240   1.270       .  A
O229        C242   1.268       .  A
C230        O235   1.273       .  A
C230        C649   1.478       .  S
C231        C401   1.478       .  S
O233        C236   1.268       .  A
O234        C236   1.271       .  A
C236        C665   1.475       .  S
O237        C242   1.266       .  A
O238        C240   1.269       .  A
C239        O241   1.268       .  A
C239        C609   1.483       .  S
C240        C417   1.462       .  S
C242       C1025   1.486       .  S
Fe243       O259   2.069       .  S
Fe243       O249   2.035       .  S
Fe243       O256   2.038       .  S
Fe243       O248   2.074       .  S
Fe243       O254   1.968       .  S
Fe244       O247   2.066       .  S
Fe244       O251   2.057       .  S
Fe244       O255   2.083       .  S
Fe244       O260   2.055       .  S
Fe244       O254   1.970       .  S
Fe245       O263   2.075       .  S
Fe245       O250   2.076       .  S
Fe245       O257   2.077       .  S
Fe245       O246   2.075       .  S
Fe245       O254   1.981       .  S
O246        C253   1.276       .  A
O247        C261   1.270       .  A
O248        C253   1.276       .  A
O249        C252   1.260       .  A
O250        C262   1.270       .  A
O251        C264   1.270       .  A
C252        O257   1.266       .  A
C252        C409   1.478       .  S
C253        C737   1.480       .  S
O255        C258   1.269       .  A
O256        C258   1.261       .  A
C258        C489   1.481       .  S
O259        C264   1.271       .  A
O260        C262   1.267       .  A
C261        O263   1.271       .  A
C261        C473   1.466       .  S
C262       C1017   1.485       .  S
C264        C753   1.470       .  S
Fe265       O281   2.075       .  S
Fe265       O271   2.061       .  S
Fe265       O278   2.065       .  S
Fe265       O270   2.074       .  S
Fe265       O276   1.962       .  S
Fe266       O269   2.065       .  S
Fe266       O273   2.044       .  S
Fe266       O277   2.072       .  S
Fe266       O282   2.041       .  S
Fe266       O276   1.958       .  S
Fe267       O285   2.066       .  S
Fe267       O272   2.091       .  S
Fe267       O279   2.073       .  S
Fe267       O268   2.055       .  S
Fe267       O276   1.966       .  S
O268        C275   1.272       .  A
O269        C283   1.268       .  A
O270        C275   1.276       .  A
O271        C274   1.266       .  A
O272        C284   1.275       .  A
O273        C286   1.270       .  A
C274        O279   1.268       .  A
C274        C369   1.488       .  S
C275        C497   1.475       .  S
O277        C280   1.266       .  A
O278        C280   1.265       .  A
C280        C713   1.487       .  S
O281        C286   1.275       .  A
O282        C284   1.267       .  A
C283        O285   1.266       .  A
C283        C393   1.463       .  S
C284        C833   1.480       .  S
C286        C513   1.462       .  S
Fe287       O303   2.053       .  S
Fe287       O293   2.031       .  S
Fe287       O300   2.034       .  S
Fe287       O292   2.044       .  S
Fe287       O298   1.972       .  S
Fe288       O291   2.050       .  S
Fe288       O295   2.067       .  S
Fe288       O299   2.059       .  S
Fe288       O304   2.053       .  S
Fe288       O298   1.968       .  S
Fe289       O307   2.079       .  S
Fe289       O294   2.078       .  S
Fe289       O301   2.077       .  S
Fe289       O290   2.084       .  S
Fe289       O298   1.984       .  S
O290        C297   1.268       .  A
O291        C305   1.265       .  A
O292        C297   1.261       .  A
O293        C296   1.269       .  A
O294        C306   1.273       .  A
O295        C308   1.265       .  A
C296        O301   1.276       .  A
C296        C585   1.465       .  S
C297        C377   1.489       .  S
O299        C302   1.270       .  A
O300        C302   1.265       .  A
C302        C601   1.460       .  S
O303        C308   1.264       .  A
O304        C306   1.270       .  A
C305        O307   1.269       .  A
C305        C681   1.483       .  S
C306        C425   1.462       .  S
C308        C865   1.479       .  S
Fe309       O325   2.039       .  S
Fe309       O315   2.058       .  S
Fe309       O322   2.058       .  S
Fe309       O314   2.046       .  S
Fe309       O320   1.975       .  S
Fe310       O313   2.062       .  S
Fe310       O317   2.058       .  S
Fe310       O321   2.062       .  S
Fe310       O326   2.059       .  S
Fe310       O320   1.966       .  S
Fe311       O329   2.069       .  S
Fe311       O316   2.072       .  S
Fe311       O323   2.075       .  S
Fe311       O312   2.063       .  S
Fe311       O320   1.981       .  S
O312        C319   1.271       .  A
O313        C327   1.271       .  A
O314        C319   1.269       .  A
O315        C318   1.266       .  A
O316        C328   1.269       .  A
O317        C330   1.269       .  A
C318        O323   1.268       .  A
C318        C361   1.485       .  S
C319        C809   1.467       .  S
O321        C324   1.266       .  A
O322        C324   1.266       .  A
C324        C945   1.467       .  S
O325        C330   1.264       .  A
O326        C328   1.265       .  A
C327        O329   1.270       .  A
C327        C385   1.463       .  S
C328        C537   1.479       .  S
C330        C825   1.457       .  S
Fe331       O347   2.058       .  S
Fe331       O337   2.074       .  S
Fe331       O344   2.071       .  S
Fe331       O336   2.058       .  S
Fe331       O342   1.983       .  S
Fe332       O335   2.067       .  S
Fe332       O339   2.063       .  S
Fe332       O343   2.060       .  S
Fe332       O348   2.052       .  S
Fe332       O342   1.973       .  S
Fe333       O351   2.086       .  S
Fe333       O338   2.074       .  S
Fe333       O345   2.070       .  S
Fe333       O334   2.081       .  S
Fe333       O342   1.986       .  S
O334        C341   1.271       .  A
O335        C349   1.270       .  A
O336        C341   1.267       .  A
O337        C340   1.273       .  A
O338        C350   1.269       .  A
O339        C352   1.267       .  A
C340        O345   1.272       .  A
C340        C897   1.482       .  S
C341        C353   1.487       .  S
O343        C346   1.269       .  A
O344        C346   1.270       .  A
C346        C921   1.471       .  S
O347        C352   1.266       .  A
O348        C350   1.267       .  A
C349        O351   1.274       .  A
C349       C1105   1.492       .  S
C350        C441   1.467       .  S
C352        C545   1.479       .  S
C353        C354   1.406       .  A
C353        C358   1.410       .  A
C354        C355   1.400       .  A
C354        H363   1.083       .  S
C355        C356   1.403       .  A
C355        H364   1.084       .  S
C356        C362   1.407       .  A
C356        C357   1.413       .  A
C357        C359   1.402       .  A
C357        C358   1.405       .  A
C358        H365   1.084       .  S
C359        C360   1.398       .  A
C359        H366   1.084       .  S
C360        C361   1.407       .  A
C360        H367   1.083       .  S
C361        C362   1.408       .  A
C362        H368   1.084       .  S
C369        C370   1.408       .  A
C369        C374   1.408       .  A
C370        C371   1.400       .  A
C370        H379   1.083       .  S
C371        C372   1.402       .  A
C371        H380   1.083       .  S
C372        C378   1.409       .  A
C372        C373   1.414       .  A
C373        C375   1.400       .  A
C373        C374   1.406       .  A
C374        H381   1.084       .  S
C375        C376   1.396       .  A
C375        H382   1.084       .  S
C376        C377   1.409       .  A
C376        H383   1.083       .  S
C377        C378   1.408       .  A
C378        H384   1.084       .  S
C385        C386   1.402       .  A
C385        C390   1.403       .  A
C386        C387   1.394       .  A
C386        H395   1.084       .  S
C387        C388   1.401       .  A
C387        H396   1.084       .  S
C388        C394   1.399       .  A
C388        C389   1.416       .  A
C389        C391   1.405       .  A
C389        C390   1.405       .  A
C390        H397   1.085       .  S
C391        C392   1.400       .  A
C391        H398   1.084       .  S
C392        C393   1.402       .  A
C392        H399   1.083       .  S
C393        C394   1.401       .  A
C394        H400   1.085       .  S
C401        C402   1.406       .  A
C401        C406   1.403       .  A
C402        C403   1.400       .  A
C402        H411   1.083       .  S
C403        C404   1.403       .  A
C403        H412   1.084       .  S
C404        C410   1.407       .  A
C404        C405   1.415       .  A
C405        C407   1.398       .  A
C405        C406   1.400       .  A
C406        H413   1.085       .  S
C407        C408   1.392       .  A
C407        H414   1.084       .  S
C408        C409   1.407       .  A
C408        H415   1.083       .  S
C409        C410   1.406       .  A
C410        H416   1.085       .  S
C417        C418   1.402       .  A
C417        C422   1.400       .  A
C418        C419   1.398       .  A
C418        H427   1.084       .  S
C419        C420   1.403       .  A
C419        H428   1.084       .  S
C420        C426   1.404       .  A
C420        C421   1.416       .  A
C421        C423   1.401       .  A
C421        C422   1.401       .  A
C422        H429   1.085       .  S
C423        C424   1.395       .  A
C423        H430   1.084       .  S
C424        C425   1.402       .  A
C424        H431   1.084       .  S
C425        C426   1.402       .  A
C426        H432   1.085       .  S
C433        C434   1.402       .  A
C433        C438   1.405       .  A
C434        C435   1.392       .  A
C434        H443   1.084       .  S
C435        C436   1.399       .  A
C435        H444   1.084       .  S
C436        C442   1.400       .  A
C436        C437   1.416       .  A
C437        C439   1.405       .  A
C437        C438   1.409       .  A
C438        H445   1.084       .  S
C439        C440   1.402       .  A
C439        H446   1.083       .  S
C440        C441   1.403       .  A
C440        H447   1.083       .  S
C441        C442   1.400       .  A
C442        H448   1.085       .  S
C449        C450   1.408       .  A
C449        C454   1.409       .  A
C450        C451   1.394       .  A
C450        H459   1.083       .  S
C451        C452   1.399       .  A
C451        H460   1.084       .  S
C452        C458   1.402       .  A
C452        C453   1.414       .  A
C453        C455   1.404       .  A
C453        C454   1.410       .  A
C454        H461   1.084       .  S
C455        C456   1.402       .  A
C455        H462   1.084       .  S
C456        C457   1.407       .  A
C456        H463   1.083       .  S
C457        C458   1.406       .  A
C458        H464   1.085       .  S
C465        C466   1.403       .  A
C465        C470   1.402       .  A
C466        C467   1.396       .  A
C466        H475   1.084       .  S
C467        C468   1.402       .  A
C467        H476   1.084       .  S
C468        C474   1.404       .  A
C468        C469   1.416       .  A
C469        C471   1.403       .  A
C469        C470   1.406       .  A
C470        H477   1.084       .  S
C471        C472   1.399       .  A
C471        H478   1.083       .  S
C472        C473   1.402       .  A
C472        H479   1.084       .  S
C473        C474   1.401       .  A
C474        H480   1.085       .  S
C481        C482   1.409       .  A
C481        C486   1.403       .  A
C482        C483   1.399       .  A
C482        H491   1.083   1_545  S
C483        C484   1.401       .  A
C483        H492   1.084       .  S
C484        C490   1.409       .  A
C484        C485   1.416       .  A
C485        C487   1.398       .  A
C485        C486   1.404       .  A
C486        H493   1.085       .  S
C487        C488   1.393       .  A
C487        H494   1.084       .  S
C488        C489   1.408       .  A
C488        H495   1.083       .  S
C489        C490   1.406       .  A
C490        H496   1.085       .  S
C497        C498   1.407       .  A
C497        C502   1.401       .  A
C498        C499   1.399       .  A
C498        H507   1.083       .  S
C499        C500   1.403       .  A
C499        H508   1.084       .  S
C500        C506   1.407       .  A
C500        C501   1.416       .  A
C501        C503   1.398       .  A
C501        C502   1.398       .  A
C502        H509   1.085       .  S
C503        C504   1.390       .  A
C503        H510   1.084       .  S
C504        C505   1.404       .  A
C504        H511   1.084       .  S
C505        C506   1.405       .  A
C506        H512   1.084   1_554  S
C513        C514   1.404       .  A
C513        C518   1.399       .  A
C514        C515   1.393       .  A
C514        H523   1.084       .  S
C515        C516   1.400       .  A
C515        H524   1.084       .  S
C516        C522   1.398       .  A
C516        C517   1.415       .  A
C517        C519   1.399       .  A
C517        C518   1.398       .  A
C518        H525   1.084       .  S
C519        C520   1.393       .  A
C519        H526   1.083       .  S
C520        C521   1.405       .  A
C520        H527   1.083       .  S
C521        C522   1.403       .  A
C522        H528   1.084       .  S
C529        C530   1.407       .  A
C529        C534   1.406       .  A
C530        C531   1.400       .  A
C530        H539   1.083       .  S
C531        C532   1.403       .  A
C531        H540   1.083       .  S
C532        C538   1.407       .  A
C532        C533   1.414       .  A
C533        C535   1.401       .  A
C533        C534   1.403       .  A
C534        H541   1.084       .  S
C535        C536   1.395       .  A
C535        H542   1.083       .  S
C536        C537   1.404       .  A
C536        H543   1.083       .  S
C537        C538   1.408       .  A
C538        H544   1.084       .  S
C545        C546   1.405       .  A
C545        C550   1.408       .  A
C546        C547   1.395       .  A
C546        H555   1.083       .  S
C547        C548   1.401       .  A
C547        H556   1.084       .  S
C548        C554   1.401       .  A
C548        C549   1.413       .  A
C549        C551   1.403       .  A
C549        C550   1.404       .  A
C550        H557   1.084       .  S
C551        C552   1.398       .  A
C551        H558   1.084       .  S
C552        C553   1.405   1_455  A
C552        H559   1.083       .  S
C553        C554   1.405   1_655  A
C554        H560   1.085   1_455  S
C561        C562   1.406       .  A
C561        C566   1.410       .  A
C562        C563   1.394       .  A
C562        H571   1.083       .  S
C563        C564   1.400       .  A
C563        H572   1.084       .  S
C564        C570   1.402       .  A
C564        C565   1.413       .  A
C565        C567   1.405       .  A
C565        C566   1.409       .  A
C566        H573   1.084       .  S
C567        C568   1.403       .  A
C567        H574   1.084       .  S
C568        C569   1.407       .  A
C568        H575   1.083       .  S
C569        C570   1.407       .  A
C570        H576   1.084       .  S
C577        C578   1.405       .  A
C577        C582   1.397       .  A
C578        C579   1.395       .  A
C578        H587   1.083   1_554  S
C579        C580   1.401       .  A
C579        H588   1.083       .  S
C580        C586   1.401       .  A
C580        C581   1.416       .  A
C581        C583   1.395       .  A
C581        C582   1.393       .  A
C582        H589   1.085       .  S
C583        C584   1.387       .  A
C583        H590   1.084       .  S
C584        C585   1.407       .  A
C584        H591   1.084       .  S
C585        C586   1.401       .  A
C586        H592   1.084       .  S
C593        C594   1.401       .  A
C593        C598   1.403       .  A
C594        C595   1.398       .  A
C594        H603   1.083       .  S
C595        C596   1.405       .  A
C595        H604   1.083       .  S
C596        C602   1.397       .  A
C596        C597   1.412       .  A
C597        C599   1.400       .  A
C597        C598   1.389       .  A
C598        H605   1.084       .  S
C599        C600   1.389       .  A
C599        H606   1.083       .  S
C600        C601   1.401       .  A
C600        H607   1.084       .  S
C601        C602   1.405       .  A
C602        H608   1.084       .  S
C609        C610   1.407       .  A
C609        C614   1.410       .  A
C610        C611   1.395       .  A
C610        H619   1.083       .  S
C611        C612   1.400       .  A
C611        H620   1.084       .  S
C612        C618   1.401       .  A
C612        C613   1.413       .  A
C613        C615   1.405       .  A
C613        C614   1.405       .  A
C614        H621   1.084       .  S
C615        C616   1.400       .  A
C615        H622   1.084       .  S
C616        C617   1.404       .  A
C616        H623   1.083       .  S
C617        C618   1.403       .  A
C618        H624   1.085       .  S
C625        C626   1.407   1_655  A
C625        C630   1.409   1_655  A
C626        C627   1.404       .  A
C626        H635   1.083       .  S
C627        C628   1.406       .  A
C627        H636   1.084       .  S
C628        C634   1.411       .  A
C628        C629   1.413       .  A
C629        C631   1.402       .  A
C629        C630   1.404       .  A
C630        H637   1.084   1_455  S
C631        C632   1.396       .  A
C631        H638   1.084       .  S
C632        C633   1.404       .  A
C632        H639   1.083       .  S
C633        C634   1.411       .  A
C634        H640   1.084       .  S
C641        C642   1.405   1_554  A
C641        C646   1.405       .  A
C642        C643   1.395       .  A
C642        H651   1.084   1_556  S
C643        C644   1.401       .  A
C643        H652   1.084       .  S
C644        C650   1.402       .  A
C644        C645   1.414       .  A
C645        C647   1.402       .  A
C645        C646   1.404   1_556  A
C646        H653   1.084       .  S
C647        C648   1.398       .  A
C647        H654   1.083       .  S
C648        C649   1.406       .  A
C648        H655   1.083       .  S
C649        C650   1.406       .  A
C650        H656   1.084       .  S
C657        C658   1.405       .  A
C657        C662   1.403       .  A
C658        C659   1.400       .  A
C658        H667   1.083       .  S
C659        C660   1.403       .  A
C659        H668   1.083       .  S
C660        C666   1.407       .  A
C660        C661   1.415       .  A
C661        C663   1.399       .  A
C661        C662   1.399       .  A
C662        H669   1.084       .  S
C663        C664   1.392       .  A
C663        H670   1.083       .  S
C664        C665   1.406       .  A
C664        H671   1.084       .  S
C665        C666   1.405       .  A
C666        H672   1.084       .  S
C673        C674   1.404       .  A
C673        C678   1.407       .  A
C674        C675   1.398       .  A
C674        H683   1.083       .  S
C675        C676   1.403       .  A
C675        H684   1.084       .  S
C676        C682   1.403       .  A
C676        C677   1.413       .  A
C677        C679   1.403       .  A
C677        C678   1.404       .  A
C678        H685   1.085       .  S
C679        C680   1.399       .  A
C679        H686   1.084       .  S
C680        C681   1.406       .  A
C680        H687   1.083       .  S
C681        C682   1.408       .  A
C682        H688   1.084       .  S
C689        C690   1.403       .  A
C689        C694   1.400       .  A
C690        C691   1.398   1_545  A
C690        H699   1.084       .  S
C691        C692   1.402   1_565  A
C691        H700   1.083       .  S
C692        C698   1.404   1_544  A
C692        C693   1.416   1_554  A
C693        C695   1.400       .  A
C693        C694   1.401   1_556  A
C694        H701   1.085       .  S
C695        C696   1.393       .  A
C695        H702   1.083       .  S
C696        C697   1.401   1_545  A
C696        H703   1.084       .  S
C697        C698   1.401       .  A
C698        H704   1.084       .  S
C705        C706   1.406       .  A
C705        C710   1.408       .  A
C706        C707   1.396   1_545  A
C706        H715   1.083       .  S
C707        C708   1.401       .  A
C707        H716   1.084       .  S
C708        C714   1.406       .  A
C708        C709   1.415       .  A
C709        C711   1.403       .  A
C709        C710   1.411   1_565  A
C710        H717   1.084       .  S
C711        C712   1.402       .  A
C711        H718   1.083       .  S
C712        C713   1.408       .  A
C712        H719   1.083       .  S
C713        C714   1.407       .  A
C714        H720   1.084       .  S
C721        C722   1.411       .  A
C721        C726   1.409       .  A
C722        C723   1.393       .  A
C722        H731   1.083       .  S
C723        C724   1.398       .  A
C723        H732   1.084       .  S
C724        C730   1.403       .  A
C724        C725   1.414       .  A
C725        C727   1.403       .  A
C725        C726   1.411       .  A
C726        H733   1.084       .  S
C727        C728   1.402       .  A
C727        H734   1.083       .  S
C728        C729   1.408       .  A
C728        H735   1.083       .  S
C729        C730   1.406       .  A
C730        H736   1.084       .  S
C737        C738   1.405       .  A
C737        C742   1.406       .  A
C738        C739   1.401       .  A
C738        H747   1.083       .  S
C739        C740   1.404       .  A
C739        H748   1.084       .  S
C740        C746   1.407       .  A
C740        C741   1.415       .  A
C741        C743   1.401       .  A
C741        C742   1.403       .  A
C742        H749   1.085       .  S
C743        C744   1.396       .  A
C743        H750   1.084       .  S
C744        C745   1.405   1_556  A
C744        H751   1.083       .  S
C745        C746   1.407   1_554  A
C746        H752   1.085   1_556  S
C753        C754   1.405       .  A
C753        C758   1.403       .  A
C754        C755   1.393       .  A
C754        H763   1.084       .  S
C755        C756   1.400       .  A
C755        H764   1.084       .  S
C756        C762   1.400       .  A
C756        C757   1.415       .  A
C757        C759   1.402       .  A
C757        C758   1.404       .  A
C758        H765   1.084       .  S
C759        C760   1.398       .  A
C759        H766   1.084       .  S
C760        C761   1.406       .  A
C760        H767   1.083       .  S
C761        C762   1.403       .  A
C762        H768   1.085       .  S
C769        C770   1.406       .  A
C769        C774   1.407       .  A
C770        C771   1.401       .  A
C770        H779   1.083       .  S
C771        C772   1.404       .  A
C771        H780   1.084       .  S
C772        C778   1.410       .  A
C772        C773   1.414       .  A
C773        C775   1.401       .  A
C773        C774   1.407       .  A
C774        H781   1.085       .  S
C775        C776   1.398       .  A
C775        H782   1.084       .  S
C776        C777   1.409       .  A
C776        H783   1.083       .  S
C777        C778   1.410       .  A
C778        H784   1.084       .  S
C785        C786   1.406       .  A
C785        C790   1.401       .  A
C786        C787   1.399       .  A
C786        H795   1.083   1_545  S
C787        C788   1.403       .  A
C787        H796   1.084       .  S
C788        C794   1.407       .  A
C788        C789   1.415       .  A
C789        C791   1.398       .  A
C789        C790   1.403       .  A
C790        H797   1.085       .  S
C791        C792   1.393       .  A
C791        H798   1.084       .  S
C792        C793   1.409       .  A
C792        H799   1.083       .  S
C793        C794   1.408       .  A
C794        H800   1.084       .  S
C801        C802   1.402   1_554  A
C801        C806   1.405   1_554  A
C802        C803   1.392       .  A
C802        H811   1.083       .  S
C803        C804   1.401       .  A
C803        H812   1.084       .  S
C804        C810   1.393       .  A
C804        C805   1.413       .  A
C805        C807   1.403       .  A
C805        C806   1.398       .  A
C806        H813   1.085   1_556  S
C807        C808   1.397       .  A
C807        H814   1.084       .  S
C808        C809   1.403       .  A
C808        H815   1.083       .  S
C809        C810   1.405       .  A
C810        H816   1.085       .  S
C817        C818   1.406       .  A
C817        C822   1.400       .  A
C818        C819   1.390       .  A
C818        H827   1.083       .  S
C819        C820   1.397       .  A
C819        H828   1.084       .  S
C820        C826   1.394       .  A
C820        C821   1.416       .  A
C821        C823   1.400       .  A
C821        C822   1.397       .  A
C822        H829   1.085       .  S
C823        C824   1.393       .  A
C823        H830   1.084       .  S
C824        C825   1.403       .  A
C824        H831   1.083       .  S
C825        C826   1.397       .  A
C826        H832   1.085       .  S
C833        C834   1.406       .  A
C833        C838   1.409       .  A
C834        C835   1.395       .  A
C834        H843   1.083       .  S
C835        C836   1.401       .  A
C835        H844   1.084       .  S
C836        C842   1.400       .  A
C836        C837   1.413       .  A
C837        C839   1.404       .  A
C837        C838   1.402       .  A
C838        H845   1.085       .  S
C839        C840   1.399       .  A
C839        H846   1.084       .  S
C840        C841   1.405       .  A
C840        H847   1.083       .  S
C841        C842   1.404       .  A
C842        H848   1.085       .  S
C849        C850   1.402       .  A
C849        C854   1.401       .  A
C850        C851   1.401       .  A
C850        H859   1.083       .  S
C851        C852   1.405       .  A
C851        H860   1.084   1_554  S
C852        C858   1.408   1_454  A
C852        C853   1.416       .  A
C853        C855   1.400   1_455  A
C853        C854   1.401       .  A
C854        H861   1.085       .  S
C855        C856   1.394       .  A
C855        H862   1.084       .  S
C856        C857   1.403   1_554  A
C856        H863   1.084       .  S
C857        C858   1.405       .  A
C858        H864   1.085   1_655  S
C865        C866   1.406       .  A
C865        C870   1.404       .  A
C866        C867   1.401       .  A
C866        H875   1.083       .  S
C867        C868   1.404   1_655  A
C867        H876   1.084   1_655  S
C868        C874   1.407       .  A
C868        C869   1.413   1_455  A
C869        C871   1.398       .  A
C869        C870   1.398       .  A
C870        H877   1.085       .  S
C871        C872   1.392   1_655  A
C871        H878   1.084       .  S
C872        C873   1.408       .  A
C872        H879   1.083       .  S
C873        C874   1.409       .  A
C874        H880   1.084       .  S
C881        C882   1.409       .  A
C881        C886   1.410       .  A
C882        C883   1.393       .  A
C882        H891   1.083       .  S
C883        C884   1.398       .  A
C883        H892   1.084       .  S
C884        C890   1.404       .  A
C884        C885   1.415       .  A
C885        C887   1.404       .  A
C885        C886   1.413       .  A
C886        H893   1.084       .  S
C887        C888   1.403       .  A
C887        H894   1.083       .  S
C888        C889   1.408       .  A
C888        H895   1.083       .  S
C889        C890   1.405       .  A
C890        H896   1.084       .  S
C897        C898   1.407       .  A
C897        C902   1.405       .  A
C898        C899   1.401       .  A
C898        H907   1.083       .  S
C899        C900   1.403       .  A
C899        H908   1.083       .  S
C900        C906   1.409   1_556  A
C900        C901   1.415       .  A
C901        C903   1.400       .  A
C901        C902   1.403       .  A
C902        H909   1.084       .  S
C903        C904   1.394   1_556  A
C903        H910   1.084       .  S
C904        C905   1.405       .  A
C904        H911   1.084       .  S
C905        C906   1.406       .  A
C906        H912   1.084       .  S
C913        C914   1.407       .  A
C913        C918   1.405       .  A
C914        C915   1.399       .  A
C914        H923   1.083       .  S
C915        C916   1.402       .  A
C915        H924   1.083       .  S
C916        C922   1.405       .  A
C916        C917   1.415       .  A
C917        C919   1.402       .  A
C917        C918   1.403       .  A
C918        H925   1.084       .  S
C919        C920   1.396       .  A
C919        H926   1.083       .  S
C920        C921   1.403       .  A
C920        H927   1.084       .  S
C921        C922   1.404       .  A
C922        H928   1.084       .  S
C929        C930   1.411       .  A
C929        C934   1.411       .  A
C930        C931   1.399       .  A
C930        H939   1.083       .  S
C931        C932   1.401       .  A
C931        H940   1.084       .  S
C932        C938   1.411       .  A
C932        C933   1.415       .  A
C933        C935   1.404       .  A
C933        C934   1.413       .  A
C934        H941   1.084       .  S
C935        C936   1.401       .  A
C935        H942   1.084       .  S
C936        C937   1.406       .  A
C936        H943   1.083       .  S
C937        C938   1.407       .  A
C938        H944   1.085       .  S
C945        C946   1.402       .  A
C945        C950   1.401       .  A
C946        C947   1.398       .  A
C946        H955   1.083       .  S
C947        C948   1.404       .  A
C947        H956   1.084       .  S
C948        C954   1.403   1_565  A
C948        C949   1.414       .  A
C949        C951   1.401       .  A
C949        C950   1.401       .  A
C950        H957   1.085       .  S
C951        C952   1.396   1_565  A
C951        H958   1.084       .  S
C952        C953   1.405       .  A
C952        H959   1.083       .  S
C953        C954   1.408       .  A
C954        H960   1.085       .  S
C961        C962   1.404       .  A
C961        C966   1.401       .  A
C962        C963   1.397       .  A
C962        H971   1.083       .  S
C963        C964   1.402   1_556  A
C963        H972   1.084   1_545  S
C964        C970   1.403   1_545  A
C964        C965   1.416       .  A
C965        C967   1.401       .  A
C965        C966   1.401   1_554  A
C966        H973   1.085   1_556  S
C967        C968   1.395       .  A
C967        H974   1.084       .  S
C968        C969   1.402   1_545  A
C968        H975   1.084       .  S
C969        C970   1.401       .  A
C970        H976   1.085       .  S
C977        C978   1.405       .  A
C977        C982   1.403       .  A
C978        C979   1.401       .  A
C978        H987   1.083       .  S
C979        C980   1.404       .  A
C979        H988   1.084       .  S
C980        C986   1.407       .  A
C980        C981   1.416       .  A
C981        C983   1.400       .  A
C981        C982   1.400       .  A
C982        H989   1.085       .  S
C983        C984   1.393       .  A
C983        H990   1.084       .  S
C984        C985   1.403   1_554  A
C984        H991   1.084   1_554  S
C985        C986   1.405   1_556  A
C986        H992   1.085       .  S
C993        C994   1.406       .  A
C993        C998   1.404       .  A
C994        C995   1.401       .  A
C994       H1003   1.083       .  S
C995        C996   1.404       .  A
C995       H1004   1.084       .  S
C996       C1002   1.407       .  A
C996        C997   1.415       .  A
C997        C999   1.399       .  A
C997        C998   1.399       .  A
C998       H1005   1.086       .  S
C999       C1000   1.392       .  A
C999       H1006   1.085       .  S
C1000      C1001   1.407       .  A
C1000      H1007   1.083       .  S
C1001      C1002   1.407       .  A
C1002      H1008   1.085       .  S
C1009      C1010   1.406       .  A
C1009      C1014   1.406       .  A
C1010      C1011   1.397       .  A
C1010      H1019   1.083       .  S
C1011      C1012   1.402       .  A
C1011      H1020   1.084       .  S
C1012      C1018   1.404       .  A
C1012      C1013   1.414       .  A
C1013      C1015   1.401       .  A
C1013      C1014   1.405       .  A
C1014      H1021   1.084       .  S
C1015      C1016   1.397       .  A
C1015      H1022   1.084       .  S
C1016      C1017   1.407       .  A
C1016      H1023   1.083       .  S
C1017      C1018   1.408       .  A
C1018      H1024   1.084       .  S
C1025      C1026   1.406       .  A
C1025      C1030   1.410       .  A
C1026      C1027   1.397       .  A
C1026      H1035   1.083       .  S
C1027      C1028   1.401       .  A
C1027      H1036   1.084       .  S
C1028      C1034   1.405   1_655  A
C1028      C1029   1.413       .  A
C1029      C1031   1.405       .  A
C1029      C1030   1.409       .  A
C1030      H1037   1.084       .  S
C1031      C1032   1.402   1_655  A
C1031      H1038   1.084       .  S
C1032      C1033   1.407       .  A
C1032      H1039   1.083       .  S
C1033      C1034   1.407       .  A
C1034      H1040   1.085       .  S
C1041      C1042   1.403   1_655  A
C1041      C1046   1.402       .  A
C1042      C1043   1.397       .  A
C1042      H1051   1.084       .  S
C1043      C1044   1.401       .  A
C1043      H1052   1.084       .  S
C1044      C1050   1.406       .  A
C1044      C1045   1.416   1_455  A
C1045      C1047   1.402   1_554  A
C1045      C1046   1.407       .  A
C1046      H1053   1.084       .  S
C1047      C1048   1.398   1_655  A
C1047      H1054   1.083       .  S
C1048      C1049   1.403       .  A
C1048      H1055   1.084       .  S
C1049      C1050   1.403   1_556  A
C1050      H1056   1.085       .  S
C1057      C1058   1.408       .  A
C1057      C1062   1.405       .  A
C1058      C1059   1.403       .  A
C1058      H1067   1.083       .  S
C1059      C1060   1.404       .  A
C1059      H1068   1.084       .  S
C1060      C1066   1.413       .  A
C1060      C1061   1.414       .  A
C1061      C1063   1.397       .  A
C1061      C1062   1.403       .  A
C1062      H1069   1.085       .  S
C1063      C1064   1.393       .  A
C1063      H1070   1.084       .  S
C1064      C1065   1.410       .  A
C1064      H1071   1.083       .  S
C1065      C1066   1.410       .  A
C1066      H1072   1.084       .  S
C1073      C1074   1.405       .  A
C1073      C1078   1.404       .  A
C1074      C1075   1.394       .  A
C1074      H1083   1.084       .  S
C1075      C1076   1.400       .  A
C1075      H1084   1.084       .  S
C1076      C1082   1.401       .  A
C1076      C1077   1.415       .  A
C1077      C1079   1.402       .  A
C1077      C1078   1.405       .  A
C1078      H1085   1.084       .  S
C1079      C1080   1.398       .  A
C1079      H1086   1.083       .  S
C1080      C1081   1.405       .  A
C1080      H1087   1.083       .  S
C1081      C1082   1.404       .  A
C1082      H1088   1.084       .  S
C1089      C1090   1.406       .  A
C1089      C1094   1.407       .  A
C1090      C1091   1.398       .  A
C1090      H1099   1.083       .  S
C1091      C1092   1.402       .  A
C1091      H1100   1.084       .  S
C1092      C1098   1.405       .  A
C1092      C1093   1.414       .  A
C1093      C1095   1.401       .  A
C1093      C1094   1.402       .  A
C1094      H1101   1.084       .  S
C1095      C1096   1.396       .  A
C1095      H1102   1.084       .  S
C1096      C1097   1.405       .  A
C1096      H1103   1.083       .  S
C1097      C1098   1.405       .  A
C1098      H1104   1.084       .  S
C1105      C1106   1.407       .  A
C1105      C1110   1.413       .  A
C1106      C1107   1.398       .  A
C1106      H1115   1.083       .  S
C1107      C1108   1.402       .  A
C1107      H1116   1.084       .  S
C1108      C1114   1.406       .  A
C1108      C1109   1.413       .  A
C1109      C1111   1.406       .  A
C1109      C1110   1.410       .  A
C1110      H1117   1.084       .  S
C1111      C1112   1.403       .  A
C1111      H1118   1.084       .  S
C1112      C1113   1.406       .  A
C1112      H1119   1.083       .  S
C1113      C1114   1.408       .  A
C1114      H1120   1.085       .  S
