geometry optimzed in LAMMPS
_audit_creation_date              2020-12-01 
_audit_creation_method            'lammps2cif' 
_symmetry_space_group_name_H-M    'P1' 
_symmetry_Int_Tables_number       1 
_symmetry_cell_setting            triclinic 
loop_ 
_symmetry_equiv_pos_as_xyz 
  x,y,z 
_cell_length_a                    34.00443402 
_cell_length_b                    34.08263016364364 
_cell_length_c                    44.26993840924586 
_cell_angle_alpha                 89.93586723994342 
_cell_angle_beta                  90.2548941734814 
_cell_angle_gamma                 120.45468621813073 
loop_ 
_atom_site_label 
_atom_site_type_symbol 
_atom_site_fract_x 
_atom_site_fract_y 
_atom_site_fract_z 
_atom_site_charge 
O1          O  0.27582978  0.32065617  0.40577068    -0.82500
C2          C  0.33913799  0.36126684  0.02527226     0.96800
O3          O  0.36096192  0.35883699  0.00296166    -0.71600
O4          O  0.32150981  0.28427673  0.47325937    -0.75200
Al5        Al  0.34901434  0.34588696  0.46070803     1.49000
C6          C  0.28870630  0.25103467  0.46000089     0.92100
O7          O  0.21273513  0.28724390  0.48024245    -0.81500
O8          O  0.28272886  0.41452978  0.44795941    -0.75000
Al9        Al  0.24735278  0.30622997  0.44374070     1.90100
O10         O  0.23329877  0.35639744  0.49467306    -0.74100
O11         O  0.35823785  0.43712675  0.47866123    -0.73900
O12         O  0.30607893  0.36795182  0.02137737    -0.79600
O13         O  0.38476658  0.40726103  0.44745976    -0.77800
O14         O  0.29772162  0.34759027  0.46266161    -1.13900
O15         O  0.34210131  0.32898195  0.41906361    -0.73100
C16         C  0.31296110  0.32305711  0.39906575     0.97600
C17         C  0.20550164  0.31412153  0.49572009     0.94000
Al18       Al  0.29620820  0.39132001  0.48364661     1.55600
O19         O  0.25822210  0.25633794  0.44768589    -0.77800
C20         C  0.38910524  0.44164072  0.46110631     0.98200
C21         C  0.24855281  0.39041282  0.43121200     0.93000
O22         O  0.22629329  0.34749142  0.43381478    -0.83100
O23         O  0.05319077  0.31369347  0.34985225    -0.82500
C24         C  0.03999343  0.36117556  0.23030039     0.96800
O25         O  0.01398067  0.35797267  0.25171924    -0.71600
O26         O  0.97672279  0.28120598  0.28133294    -0.75200
Al27       Al  0.01138496  0.34293928  0.29364751     1.49000
C28         C  0.97565235  0.24748806  0.29371431     0.92100
O29         O  0.09165133  0.28535171  0.27693966    -0.81500
O30         O  0.14671129  0.41161695  0.31018917    -0.75000
Al31       Al  0.07189038  0.30253747  0.31258261     1.90100
O32         O  0.14090478  0.35486358  0.26344561    -0.74100
O33         O  0.09576628  0.43482193  0.27741948    -0.73900
O34         O  0.08012025  0.36935740  0.23584289    -0.79600
O35         O  0.03656440  0.40455235  0.30645203    -0.77800
O36         O  0.06461741  0.34454843  0.29333407    -1.13900
O37         O  0.99899745  0.32697147  0.33531453    -0.73100
C38         C  0.01953026  0.31832601  0.35570072     0.97600
C39         C  0.12666772  0.31279166  0.26212022     0.94000
Al40       Al  0.11188849  0.38891263  0.27343548     1.55600
O41         O  0.01136839  0.25218909  0.30597403    -0.77800
C42         C  0.06780359  0.43911813  0.29346468     0.98200
C43         C  0.15438497  0.38745734  0.32834167     0.93000
O44         O  0.13352797  0.34452212  0.32555905    -0.83100
O45         O  0.33607377  0.06119140  0.32118568    -0.82500
C46         C  0.37541171  0.03056186  0.43778548     0.96800
O47         O  0.37146981  0.00519632  0.41548751    -0.71600
O48         O  0.29765703  0.97228979  0.38248075    -0.75200
Al49       Al  0.36008216  0.00867271  0.37285415     1.49000
C50         C  0.26445360  0.97279874  0.37039467     0.92100
O51         O  0.30285357  0.08522588  0.39723265    -0.81500
O52         O  0.43054287  0.14261865  0.36304788    -0.75000
Al53       Al  0.32131885  0.07189234  0.35947065     1.90100
O54         O  0.37291719  0.13490014  0.41033644    -0.74100
O55         O  0.45256221  0.08941788  0.39425855    -0.73900
O56         O  0.38576212  0.07156440  0.43409841    -0.79600
O57         O  0.42188830  0.03450354  0.36191731    -0.77800
O58         O  0.36229476  0.06145049  0.37710245    -1.13900
O59         O  0.34823911  0.00468366  0.32977652    -0.73100
C60         C  0.34275917  0.03041030  0.31159284     0.97600
C61         C  0.33052480  0.11970160  0.41267438     0.94000
Al62       Al  0.40689134  0.10611264  0.39866469     1.55600
O63         O  0.26979742  0.01013604  0.36089727    -0.77800
C64         C  0.45622265  0.06269060  0.37654647     0.98200
C65         C  0.40647011  0.15273152  0.34655584     0.93000
O66         O  0.36413369  0.13533049  0.35150607    -0.83100
O67         O  0.33407411  0.25993547  0.26644407    -0.82500
C68         C  0.37396253  0.32839785  0.14817307     0.96800
O69         O  0.37108887  0.34964470  0.17072749    -0.71600
O70         O  0.29526934  0.30832203  0.20257588    -0.75200
Al71       Al  0.35835399  0.33445815  0.21261759     1.49000
C72         C  0.26268763  0.27507709  0.21590538     0.92100
O73         O  0.29627826  0.19873745  0.19082492    -0.81500
O74         O  0.42500660  0.26628076  0.22243430    -0.75000
Al75       Al  0.31750982  0.23218533  0.22797038     1.90100
O76         O  0.36487128  0.21827095  0.17551761    -0.74100
O77         O  0.44885334  0.34211406  0.19227693    -0.73900
O78         O  0.38141437  0.29581351  0.15171191    -0.79600
O79         O  0.42093962  0.36982251  0.22424778    -0.77800
O80         O  0.35881126  0.28274148  0.20924509    -1.13900
O81         O  0.34529362  0.32746795  0.25437051    -0.73100
C82         C  0.33871421  0.29782504  0.27391485     0.97600
C83         C  0.32220598  0.19199163  0.17392014     0.94000
Al84       Al  0.40152283  0.28070376  0.18732648     1.55600
O85         O  0.26835129  0.24388627  0.22619585    -0.77800
C86         C  0.45440656  0.37304309  0.21014605     0.98200
C87         C  0.40086465  0.23220425  0.23902440     0.93000
O88         O  0.35799801  0.20954364  0.23585088    -0.83100
O89         O  0.69380220  0.70112034  0.01410135    -0.82500
C90         C  0.64857153  0.65983195  0.39603950     0.96800
O91         O  0.67180095  0.65299825  0.41545954    -0.71600
O92         O  0.72373646  0.67053164  0.46353708    -0.75200
Al93       Al  0.66010980  0.64542906  0.45701277     1.49000
C94         C  0.75790020  0.71014432  0.46283908     0.92100
O95         O  0.71013120  0.79119816  0.45596152    -0.81500
O96         O  0.60517245  0.73408794  0.47118672    -0.75000
Al97       Al  0.70145258  0.74258917  0.48209204     1.90100
O98         O  0.65915309  0.75825572  0.42048025    -0.74100
O99         O  0.56719487  0.64855226  0.45508179    -0.73900
O100        O  0.62149554  0.67344454  0.40360406    -0.79600
O101        O  0.59711509  0.60583381  0.44954642    -0.77800
O102        O  0.65954995  0.69744043  0.45935730    -1.13900
O103        O  0.64212926  0.63186440  0.99918632    -0.73100
C104        C  0.66654954  0.65946297  0.01967140     0.97600
C105        C  0.69305366  0.79338311  0.43113277     0.94000
Al106      Al  0.61698044  0.70312433  0.43932214     1.55600
O107        O  0.75233105  0.74402679  0.46246839    -0.77800
C108        C  0.56262973  0.60976262  0.45237567     0.98200
C109        C  0.62157801  0.74606989  0.49745679     0.93000
O110        O  0.65424890  0.74701435  0.00439723    -0.83100
O111        O  0.94127011  0.25788420  0.49022396    -0.82500
C112        C  0.97332327  0.32214576  0.10646270     0.96800
O113        O  0.99835297  0.34241422  0.08381992    -0.71600
O114        O  0.02909096  0.29942666  0.05199765    -0.75200
Al115      Al  0.99437991  0.32660825  0.04160025     1.49000
C116        C  0.02687591  0.26509160  0.03984218     0.92100
O117        O  0.91658730  0.19318994  0.06525864    -0.81500
O118        O  0.85944683  0.26272353  0.03203760    -0.75000
Al119      Al  0.92911945  0.22460623  0.02774691     1.90100
O120        O  0.86812840  0.21366915  0.07963241    -0.74100
O121        O  0.91404533  0.33883385  0.06188006    -0.73900
O122        O  0.93200508  0.29114719  0.10316917    -0.79600
O123        O  0.96952304  0.36284808  0.02990853    -0.77800
O124        O  0.94079441  0.27623398  0.04567465    -1.13900
O125        O  0.99838760  0.32685968  0.49981534    -0.73100
C126        C  0.97280287  0.29610069  0.48129799     0.97600
C127        C  0.88274775  0.18610046  0.08101898     0.94000
Al128      Al  0.89683032  0.27647192  0.06740801     1.55600
O129        O  0.98944140  0.23427927  0.02938154    -0.77800
C130        C  0.94124265  0.36896646  0.04401197     0.98200
C131        C  0.84855684  0.22820565  0.01577433     0.93000
O132        O  0.86603479  0.20365722  0.02035597    -0.83100
O133        O  0.72673857  0.02124856  0.43256875    -0.82500
C134        C  0.66897363  0.01632903  0.31749982     0.96800
O135        O  0.66247734  0.98787423  0.33820198    -0.71600
O136        O  0.68398781  0.95797600  0.38726706    -0.75200
Al137      Al  0.66039390  0.99693606  0.38006644     1.49000
C138        C  0.72233861  0.96166871  0.38396361     0.92100
O139        O  0.80616690  0.08867113  0.36796491    -0.81500
O140        O  0.74867220  0.14066920  0.38939501    -0.75000
Al141      Al  0.76168001  0.05379670  0.39806957     1.90100
O142        O  0.77110807  0.11110875  0.33751796    -0.74100
O143        O  0.66349765  0.09199092  0.37518703    -0.73900
O144        O  0.68467846  0.05830107  0.32347668    -0.79600
O145        O  0.61983622  0.01887012  0.37307913    -0.77800
O146        O  0.71348978  0.04947433  0.37849377    -1.13900
O147        O  0.65596663  0.00394386  0.42247014    -0.73100
C148        C  0.68692697  0.01019280  0.44127194     0.97600
C149        C  0.80621998  0.10965327  0.34450964     0.94000
Al150      Al  0.71679063  0.09633768  0.35808806     1.55600
O151        O  0.75712700  0.00040056  0.38027410    -0.77800
C152        C  0.62437977  0.05757660  0.37491917     0.98200
C153        C  0.76641103  0.13816335  0.41390470     0.93000
O154        O  0.77267569  0.10560503  0.41928778    -0.83100
O155        O  0.67246771  0.93518685  0.07230453    -0.82500
C156        C  0.63394890  0.94962739  0.19380728     0.96800
O157        O  0.63730691  0.97697810  0.17314451    -0.71600
O158        O  0.71379911  0.01255206  0.14385783    -0.75200
Al159      Al  0.65242003  0.98050800  0.13087107     1.49000
C160        C  0.74618344  0.01577373  0.12852271     0.92100
O161        O  0.71165809  0.90437892  0.14411373    -0.81500
O162        O  0.58309183  0.84507001  0.11322075    -0.85800
Al163      Al  0.69049500  0.92063844  0.10898760     1.90100
O164        O  0.64299490  0.85310486  0.15919462    -0.74100
O165        O  0.55979327  0.89535203  0.14576692    -0.73900
O166        O  0.62535303  0.91000528  0.18726658    -0.79600
O167        O  0.59167139  0.95638285  0.11810908    -0.77800
O168        O  0.64969413  0.92719694  0.12995298    -1.13900
O169        O  0.66839490  0.99411560  0.08860273    -0.73100
C170        C  0.67025666  0.97039794  0.06719648     0.97600
C171        C  0.68570603  0.86885577  0.15904694     0.94000
Al172      Al  0.60617192  0.87964475  0.14978061     1.55600
O173        O  0.74019900  0.98208634  0.11307621    -0.77800
C174        C  0.55662303  0.92454068  0.13019437     0.98200
C175        C  0.60756714  0.83679463  0.09602347     0.93000
O176        O  0.65044648  0.85849222  0.09855167    -0.83100
O177        O  0.03387648  0.71232752  0.23823645    -0.82500
C178        C  0.03002757  0.66077533  0.35404388     0.96800
O179        O  0.00140808  0.65544509  0.33376888    -0.71600
O180        O  0.97261596  0.67703565  0.28460663    -0.75200
Al181      Al  0.00853524  0.64986028  0.29230004     1.49000
C182        C  0.97968248  0.71685977  0.28689077     0.92100
O183        O  0.10913484  0.79500664  0.29979986    -0.81500
O184        O  0.15416841  0.73218351  0.28195056    -0.75000
Al185      Al  0.07017040  0.74877706  0.27132933     1.90100
O186        O  0.12683659  0.75915965  0.33284034    -0.74100
O187        O  0.10104656  0.64708137  0.29729823    -0.73900
O188        O  0.07137007  0.67386972  0.34768449    -0.79600
O189        O  0.02745890  0.60699737  0.30042439    -0.77800
O190        O  0.06313425  0.70102780  0.29250555    -1.13900
O191        O  0.01331119  0.64161538  0.25026487    -0.73100
C192        C  0.02081234  0.67163746  0.23060341     0.97600
C193        C  0.12896903  0.79530062  0.32404641     0.94000
Al194      Al  0.10925128  0.70292003  0.31319289     1.55600
O195        O  0.01980849  0.74997651  0.28940564    -0.77800
C196        C  0.06516484  0.60892068  0.29894166     0.98200
C197        C  0.15223716  0.74814289  0.25659017     0.93000
O198        O  0.11968279  0.75396514  0.24977433    -0.83100
O199        O  0.28964515  0.97408611  0.17597628    -0.82500
C200        C  0.34453762  0.96995849  0.06211588     0.96800
O201        O  0.35108480  0.99942457  0.08186521    -0.71600
O202        O  0.32813981  0.03233440  0.12780198    -0.75200
Al203      Al  0.35449930  0.99505800  0.12380869     1.49000
C204        C  0.28857093  0.02614165  0.12501818     0.92100
O205        O  0.20902130  0.89637384  0.11438498    -0.81500
O206        O  0.26783197  0.85035336  0.13672396    -0.75000
Al207      Al  0.25421799  0.93628562  0.14309682     1.90100
O208        O  0.24670974  0.87817538  0.08345481    -0.74100
O209        O  0.35367555  0.90048467  0.12340403    -0.73900
O210        O  0.33209040  0.92922626  0.06956797    -0.79600
O211        O  0.39574996  0.97372018  0.11952234    -0.77800
O212        O  0.30260356  0.94128925  0.12387825    -1.13900
O213        O  0.36113648  0.99420809  0.16657665    -0.73100
C214        C  0.33069751  0.99067125  0.18460021     0.97600
C215        C  0.21029816  0.87633496  0.09076193     0.94000
Al216      Al  0.30024537  0.89376437  0.10495970     1.55600
O217        O  0.25496603  0.98625919  0.12259321    -0.77800
C218        C  0.39234249  0.93558290  0.12234873     0.98200
C219        C  0.25197261  0.85425920  0.16158157     0.93000
O220        O  0.24709753  0.88775136  0.16678305    -0.83100
O221        O  0.73007458  0.65361579  0.15274043    -0.82500
C222        C  0.67671599  0.62483279  0.27363358     0.96800
O223        O  0.65317485  0.62693058  0.25209160    -0.71600
O224        O  0.68875495  0.69849212  0.21755864    -0.75200
Al225      Al  0.66285719  0.63559301  0.20939975     1.49000
C226        C  0.71955202  0.73052685  0.20260656     0.92100
O227        O  0.80042031  0.70376902  0.22338481    -0.81500
O228        O  0.73544381  0.57215677  0.19860170    -0.75000
Al229      Al  0.76265818  0.67701115  0.18875758     1.90100
O230        O  0.78611914  0.63824463  0.24235340    -0.74100
O231        O  0.66075249  0.54754525  0.23113724    -0.73900
O232        O  0.70955341  0.61828465  0.26903991    -0.79600
O233        O  0.62794053  0.57291561  0.20088897    -0.77800
O234        O  0.71567385  0.63677463  0.21072667    -1.13900
O235        O  0.66370000  0.64378507  0.16624003    -0.73100
C236        C  0.69052393  0.64526071  0.14590822     0.97600
C237        C  0.81158607  0.68110632  0.24035591     0.94000
Al238      Al  0.72243359  0.59725892  0.23339688     1.55600
O239        O  0.74858468  0.72449692  0.18916256    -0.77800
C240        C  0.62730547  0.54077003  0.21506188     0.98200
C241        C  0.76808438  0.59626646  0.18100134     0.93000
O242        O  0.78758721  0.63907837  0.18163955    -0.83100
O243        O  0.98170969  0.67913561  0.09549232    -0.82500
C244        C  0.98013875  0.63157520  0.48015499     0.96800
O245        O  0.01018658  0.65193399  0.50036228    -0.71600
O246        O  0.04278771  0.69991317  0.04887209    -0.75200
Al247      Al  0.00221627  0.63696134  0.04217194     1.49000
C248        C  0.03966198  0.73487127  0.04609011     0.92100
O249        O  0.91310230  0.69285570  0.03243101    -0.81500
O250        O  0.86031646  0.57919088  0.05644914    -0.75000
Al251      Al  0.94794027  0.68210326  0.06177710     1.90100
O252        O  0.88324514  0.63196533  0.00470360    -0.74100
O253        O  0.90688061  0.54356337  0.03701758    -0.73900
O254        O  0.93820471  0.60515654  0.48691971    -0.79600
O255        O  0.97986184  0.57476153  0.03529362    -0.77800
O256        O  0.94984993  0.63733141  0.04210371    -1.13900
O257        O  0.99802171  0.62555686  0.08439067    -0.73100
C258        C  0.99450954  0.65147013  0.10328051     0.97600
C259        C  0.88835551  0.67027613  0.01047126     0.94000
Al260      Al  0.90110454  0.59321405  0.02279910     1.55600
O261        O  0.00097298  0.73075003  0.04308435    -0.77800
C262        C  0.94148182  0.53964974  0.03684470     0.98200
C263        C  0.86435730  0.60141915  0.08025825     0.93000
O264        O  0.89647855  0.64169483  0.08360729    -0.83100
C265        C  0.85407427  0.58873649  0.13467543    -0.21000
C266        C  0.83327873  0.58130760  0.10614791    -0.07600
C267        C  0.78617468  0.56545724  0.10418402     0.13300
C268        C  0.76231628  0.56309966  0.13072651    -0.21100
C269        C  0.78507198  0.57668785  0.15872532    -0.07600
C270        C  0.83075036  0.58729692  0.16093938     0.13300
C271        C  0.85613408  0.60126668  0.19065023    -0.24400
H272        H  0.89017998  0.60037765  0.13607312     0.14500
H273        H  0.72736422  0.55565443  0.12909563     0.14600
C274        C  0.76226989  0.55483394  0.07406600    -0.24400
H275        H  0.89191603  0.60945711  0.18807811     0.04800
H276        H  0.83896839  0.57312771  0.20720056     0.08000
H277        H  0.85717774  0.63212561  0.19971861     0.08000
H278        H  0.76365966  0.52614921  0.06332739     0.08000
H279        H  0.77930537  0.58493137  0.05906074     0.08000
H280        H  0.72591166  0.54507901  0.07637878     0.04800
C281        C  0.12760403  0.84718895  0.08037167    -0.21000
C282        C  0.16791400  0.84754403  0.07262717    -0.07600
C283        C  0.16535008  0.81662796  0.04997974     0.13300
C284        C  0.12252883  0.78332412  0.03894356    -0.21100
C285        C  0.08204817  0.77968717  0.04952584    -0.07600
C286        C  0.08475869  0.81384047  0.06899847     0.13300
C287        C  0.04257371  0.81361876  0.07953602    -0.24400
H288        H  0.12917865  0.87152526  0.09677391     0.14500
H289        H  0.12035393  0.75760715  0.02349178     0.14600
C290        C  0.20670479  0.81612460  0.03817199    -0.24400
H291        H  0.05106900  0.84287140  0.09465618     0.04800
H292        H  0.02012489  0.78198269  0.09223842     0.08000
H293        H  0.02371790  0.81592038  0.05972574     0.08000
H294        H  0.22277991  0.80673273  0.05649292     0.08000
H295        H  0.23151500  0.85002283  0.02878279     0.08000
H296        H  0.19774424  0.79081634  0.01975944     0.04800
C297        C  0.22826366  0.80578154  0.23989381    -0.21000
C298        C  0.18919155  0.76370685  0.23439944    -0.07600
C299        C  0.17928471  0.74642885  0.20459385     0.13300
C300        C  0.20352948  0.77518442  0.18034176    -0.21100
C301        C  0.23850764  0.82002408  0.18578348    -0.07600
C302        C  0.25335314  0.83404418  0.21588013     0.13300
C303        C  0.29398462  0.87977942  0.22334516    -0.24400
H304        H  0.23646078  0.81875088  0.26282376     0.14500
H305        H  0.19298496  0.76380061  0.15731030     0.14600
C306        C  0.14239509  0.69801926  0.19867296    -0.24400
H307        H  0.31856672  0.87513613  0.23727181     0.04800
H308        H  0.28293659  0.90043330  0.23623252     0.08000
H309        H  0.31205919  0.89868827  0.20278505     0.08000
H310        H  0.10997847  0.69092113  0.20907568     0.08000
H311        H  0.15243846  0.67463679  0.20893141     0.08000
H312        H  0.13660581  0.69056518  0.17410506     0.04800
C313        C  0.04937360  0.67630162  0.40786821    -0.21000
C314        C  0.01584273  0.65230108  0.38592985    -0.07600
C315        C  0.97073550  0.62081997  0.39504113     0.13300
C316        C  0.96053645  0.61475124  0.42589702    -0.21100
C317        C  0.99406292  0.63900616  0.44799278    -0.07600
C318        C  0.03945147  0.67027674  0.43867378     0.13300
C319        C  0.07817021  0.69805249  0.46044292    -0.24400
H320        H  0.08385299  0.70050356  0.40080930     0.14500
H321        H  0.92589590  0.59073559  0.43271622     0.14600
C322        C  0.93330737  0.59241988  0.37272436    -0.24400
H323        H  0.11081270  0.72041967  0.44860747     0.04800
H324        H  0.08394045  0.67515464  0.47529458     0.08000
H325        H  0.07037050  0.72050844  0.47415367     0.08000
H326        H  0.94378505  0.57274527  0.35826254     0.08000
H327        H  0.92580985  0.61458753  0.35849410     0.08000
H328        H  0.90106279  0.56779528  0.38415328     0.04800
C329        C  0.97985039  0.61480624  0.15359208    -0.21000
C330        C  0.00716173  0.65209334  0.13492122    -0.07600
C331        C  0.04191359  0.69291391  0.14757194     0.13300
C332        C  0.04539036  0.69743010  0.17880974    -0.21100
C333        C  0.01644356  0.66142251  0.19794866    -0.07600
C334        C  0.98450520  0.61879455  0.18524130     0.13300
C335        C  0.95410909  0.57837007  0.20468440    -0.24400
H336        H  0.95352970  0.58336726  0.14347865     0.14500
H337        H  0.07107456  0.72970568  0.18837450     0.14600
C338        C  0.07526848  0.73198306  0.12812446    -0.24400
H339        H  0.92959742  0.54867692  0.19088452     0.04800
H340        H  0.93426661  0.58705452  0.22037238     0.08000
H341        H  0.97517896  0.56809231  0.21796419     0.08000
H342        H  0.05710278  0.74529440  0.11469436     0.08000
H343        H  0.09281096  0.72021165  0.11264865     0.08000
H344        H  0.10172868  0.76055308  0.14183222     0.04800
C345        C  0.93911981  0.74511271  0.25589337    -0.21000
C346        C  0.94026963  0.72326216  0.28248737    -0.07600
C347        C  0.89925338  0.69563869  0.29819726     0.13300
C348        C  0.85764645  0.68579746  0.28508423    -0.21100
C349        C  0.85594646  0.70312758  0.25663697    -0.07600
C350        C  0.89735225  0.73504918  0.24253357     0.13300
C351        C  0.89786891  0.75511014  0.21208302    -0.24400
H352        H  0.97063226  0.76597507  0.24372180     0.14500
H353        H  0.82610839  0.66214117  0.29636022     0.14600
C354        C  0.89834974  0.67414382  0.32810112    -0.24400
H355        H  0.93318660  0.77831063  0.20407278     0.04800
H356        H  0.88035493  0.77506182  0.21348734     0.08000
H357        H  0.88040151  0.72749593  0.19512257     0.08000
H358        H  0.93312084  0.68543823  0.33684729     0.08000
H359        H  0.87945470  0.63653066  0.32567431     0.08000
H360        H  0.88082954  0.68385900  0.34506376     0.04800
C361        C  0.43324073  0.89675035  0.14016428    -0.21000
C362        C  0.43394577  0.93213759  0.12353283    -0.07600
C363        C  0.47377129  0.96252408  0.10737446     0.13300
C364        C  0.51217564  0.95772465  0.10932177    -0.21100
C365        C  0.51250213  0.92359667  0.12702926    -0.07600
C366        C  0.47188553  0.89201944  0.14226494     0.13300
C367        C  0.46850934  0.85345642  0.16100083    -0.24400
H368        H  0.40239474  0.87307516  0.15208459     0.14500
H369        H  0.54258368  0.98160898  0.09711819     0.14600
C370        C  0.47608372  0.99953152  0.08732164    -0.24400
H371        H  0.43384146  0.83192476  0.17055567     0.04800
H372        H  0.49281254  0.86715378  0.18027119     0.08000
H373        H  0.47593466  0.83119679  0.14676835     0.08000
H374        H  0.47358164  0.02532225  0.10112878     0.08000
H375        H  0.44798310  0.98453948  0.07041433     0.08000
H376        H  0.50876065  0.01766491  0.07477370     0.04800
C377        C  0.74554363  0.80219597  0.17387659    -0.21000
C378        C  0.71880089  0.77348020  0.19753194    -0.07600
C379        C  0.68767649  0.78324234  0.21218748     0.13300
C380        C  0.68047664  0.81743152  0.20045853    -0.21100
C381        C  0.70362540  0.84255945  0.17473452    -0.07600
C382        C  0.73822210  0.83629929  0.16216500     0.13300
C383        C  0.76526421  0.86283533  0.13500432    -0.24400
H384        H  0.77023923  0.79591095  0.16288322     0.14500
H385        H  0.65464547  0.82290392  0.21051558     0.14600
C386        C  0.66098128  0.75750348  0.23968950    -0.24400
H387        H  0.79018324  0.85275436  0.12786807     0.04800
H388        H  0.78471779  0.89971706  0.14045187     0.08000
H389        H  0.74193836  0.85665235  0.11564656     0.08000
H390        H  0.68466910  0.75827591  0.25733393     0.08000
H391        H  0.63555419  0.72181935  0.23368835     0.08000
H392        H  0.64184164  0.77282300  0.24954788     0.04800
C393        C  0.66510462  0.96362054  0.27768346    -0.21000
C394        C  0.65875221  0.99980642  0.28578896    -0.07600
C395        C  0.64246983  0.01832638  0.26375092     0.13300
C396        C  0.63401929  0.00073451  0.23416546    -0.21100
C397        C  0.64093887  0.96480873  0.22594088    -0.07600
C398        C  0.65660111  0.94591584  0.24825602     0.13300
C399        C  0.66592913  0.90802852  0.24138116    -0.24400
H400        H  0.67764905  0.94945461  0.29450513     0.14500
H401        H  0.62178236  0.01516285  0.21731668     0.14600
C402        C  0.63259522  0.05559630  0.27133353    -0.24400
H403        H  0.68018312  0.89937589  0.26122407     0.04800
H404        H  0.69107759  0.91836210  0.22278357     0.08000
H405        H  0.63370254  0.87675023  0.23498905     0.08000
H406        H  0.66464304  0.08718519  0.27753371     0.08000
H407        H  0.60816844  0.04475172  0.29040421     0.08000
H408        H  0.61728193  0.06378710  0.25187792     0.04800
C409        C  0.63612181  0.95856984  0.01608479    -0.21000
C410        C  0.67270363  0.98499445  0.03564950    -0.07600
C411        C  0.71333451  0.02156588  0.02407855     0.13300
C412        C  0.71455671  0.03418150  0.49326579    -0.21100
C413        C  0.67831258  0.00493372  0.47410411    -0.07600
C414        C  0.63787555  0.96911844  0.48674888     0.13300
C415        C  0.59788224  0.93706268  0.46732392    -0.24400
H416        H  0.60516598  0.93029748  0.02523619     0.14500
H417        H  0.74545954  0.06189650  0.48362495     0.14600
C418        C  0.75378795  0.04980068  0.04430733    -0.24400
H419        H  0.56986205  0.91008415  0.48096837     0.04800
H420        H  0.60875791  0.92024101  0.45057919     0.08000
H421        H  0.58412499  0.95619661  0.45533689     0.08000
H422        H  0.76480518  0.02753179  0.05510776     0.08000
H423        H  0.74442003  0.06655464  0.06205512     0.08000
H424        H  0.78323196  0.07667600  0.03156432     0.04800
C425        C  0.97843748  0.49353130  0.03075207    -0.21000
C426        C  0.93868375  0.49450910  0.03790004    -0.07600
C427        C  0.89907429  0.45326383  0.04624933     0.13300
C428        C  0.90070413  0.41277433  0.04734419    -0.21100
C429        C  0.94076381  0.41216879  0.04043618    -0.07600
C430        C  0.98028876  0.45347982  0.03216086     0.13300
C431        C  0.02545691  0.45668662  0.02599573    -0.24400
H432        H  0.00895278  0.52472984  0.02423191     0.14500
H433        H  0.87046673  0.38134180  0.05390645     0.14600
C434        C  0.85533265  0.45148108  0.05476043    -0.24400
H435        H  0.05303376  0.49223048  0.02163942     0.04800
H436        H  0.02266267  0.43649782  0.00567428     0.08000
H437        H  0.03599327  0.44414332  0.04582298     0.08000
H438        H  0.84196899  0.46162702  0.03518845     0.08000
H439        H  0.86152729  0.47463312  0.07412522     0.08000
H440        H  0.82851462  0.41669506  0.06156935     0.04800
C441        C  0.83941577  0.23733100  0.46441923    -0.21000
C442        C  0.81868211  0.21854151  0.49226963    -0.07600
C443        C  0.77521767  0.17907902  0.49274463     0.13300
C444        C  0.75550052  0.15654690  0.46549350    -0.21100
C445        C  0.77909261  0.17207622  0.43806159    -0.07600
C446        C  0.82054052  0.21389764  0.43723276     0.13300
C447        C  0.84691433  0.23135644  0.40827176    -0.24400
H448        H  0.87305771  0.26753997  0.46424732     0.14500
H449        H  0.72361723  0.12429331  0.46594722     0.14600
C450        C  0.75165181  0.15514747  0.01868323    -0.24400
H451        H  0.87916797  0.26423696  0.41169902     0.04800
H452        H  0.82588430  0.23660949  0.39130603     0.08000
H453        H  0.85573496  0.20635807  0.39931305     0.08000
H454        H  0.74525565  0.17931685  0.03150975     0.08000
H455        H  0.77325442  0.14625799  0.03258468     0.08000
H456        H  0.71791613  0.12761047  0.51867082     0.04800
C457        C  0.82371767  0.06240625  0.10675014    -0.21000
C458        C  0.78896840  0.06064217  0.12487477    -0.07600
C459        C  0.79236605  0.10231217  0.13375652     0.13300
C460        C  0.82652112  0.14319558  0.12111866    -0.21100
C461        C  0.85698637  0.14401213  0.09945547    -0.07600
C462        C  0.85725626  0.10328545  0.09356202     0.13300
C463        C  0.89046364  0.10154136  0.07194620    -0.24400
H464        H  0.82239171  0.03096965  0.10065709     0.14500
H465        H  0.82739085  0.17458070  0.12672376     0.14600
C466        C  0.75899826  0.10461159  0.15502393    -0.24400
H467        H  0.88568592  0.06686134  0.07039312     0.04800
H468        H  0.92594670  0.12489668  0.07976707     0.08000
H469        H  0.88546951  0.11129922  0.04893352     0.08000
H470        H  0.75718752  0.08676201  0.17642657     0.08000
H471        H  0.72477167  0.08922768  0.14433080     0.08000
H472        H  0.76932879  0.14026127  0.16086843     0.04800
C473        C  0.65612604  0.61179257  0.35781459    -0.21000
C474        C  0.65234769  0.65006145  0.36419603    -0.07600
C475        C  0.65439516  0.67874830  0.34041123     0.13300
C476        C  0.66091424  0.66865654  0.31083555    -0.21100
C477        C  0.66629407  0.63131980  0.30469846    -0.07600
C478        C  0.66317235  0.60205476  0.32833420     0.13300
C479        C  0.66621341  0.56006766  0.32255712    -0.24400
H480        H  0.65385999  0.58953446  0.37609691     0.14500
H481        H  0.66346566  0.69092783  0.29250041     0.14600
C482        C  0.65224918  0.72121565  0.34612361    -0.24400
H483        H  0.66013873  0.53968757  0.34343205     0.04800
H484        H  0.70066829  0.56975112  0.31419548     0.08000
H485        H  0.64014850  0.53815715  0.30556989     0.08000
H486        H  0.67979309  0.74372587  0.36209196     0.08000
H487        H  0.61858544  0.71219688  0.35566733     0.08000
H488        H  0.65682631  0.74071644  0.32501548     0.04800
C489        C  0.63185217  0.63851587  0.07044766    -0.21000
C490        C  0.66612750  0.64382221  0.05056166    -0.07600
C491        C  0.70444513  0.64295950  0.06169682     0.13300
C492        C  0.70931427  0.63987576  0.09275776    -0.21100
C493        C  0.67755215  0.63929009  0.11334428    -0.07600
C494        C  0.63692613  0.63612876  0.10187399     0.13300
C495        C  0.59945453  0.63164364  0.12221771    -0.24400
H496        H  0.60242291  0.63908342  0.06149528     0.14500
H497        H  0.73963056  0.64033596  0.10093053     0.14600
C498        C  0.74145836  0.64758014  0.04085544    -0.24400
H499        H  0.56995296  0.62822363  0.10909795     0.04800
H500        H  0.61228838  0.66229313  0.13674276     0.08000
H501        H  0.58684951  0.60075781  0.13646385     0.08000
H502        H  0.75617648  0.68030089  0.02868391     0.08000
H503        H  0.72712457  0.61918914  0.02428314     0.08000
H504        H  0.76976235  0.64749846  0.05334100     0.04800
C505        C  0.75309943  0.92092554  0.41267587    -0.21000
C506        C  0.72555308  0.92046659  0.38885211    -0.07600
C507        C  0.69332513  0.87842674  0.37583503     0.13300
C508        C  0.68652422  0.83782741  0.38869090    -0.21100
C509        C  0.71010860  0.83773655  0.41494235    -0.07600
C510        C  0.74559129  0.88022254  0.42617739     0.13300
C511        C  0.77437485  0.88364891  0.45316598    -0.24400
H512        H  0.77773322  0.95332266  0.42264131     0.14500
H513        H  0.66031712  0.80588283  0.37912474     0.14600
C514        C  0.66511599  0.87618083  0.34877021    -0.24400
H515        H  0.79136021  0.86363001  0.44904405     0.04800
H516        H  0.75284041  0.87097722  0.47368092     0.08000
H517        H  0.80146868  0.91937216  0.45773385     0.08000
H518        H  0.68802959  0.89664841  0.33008040     0.08000
H519        H  0.64224727  0.88939359  0.35450637     0.08000
H520        H  0.64330821  0.84072005  0.34052727     0.04800
C521        C  0.58627166  0.81801095  0.04289903    -0.21000
C522        C  0.58821846  0.80255514  0.07197710    -0.07600
C523        C  0.58822117  0.76149265  0.07538705     0.13300
C524        C  0.59137455  0.73938072  0.04966797    -0.21100
C525        C  0.59579827  0.75825378  0.02080272    -0.07600
C526        C  0.59054867  0.79646411  0.01709593     0.13300
C527        C  0.61295231  0.82667361  0.48468163    -0.24400
H528        H  0.58695343  0.85000785  0.04050287     0.14500
H529        H  0.59507558  0.70978318  0.05232687     0.14600
C530        C  0.58907927  0.74336023  0.10628882    -0.24400
H531        H  0.59044823  0.84764495  0.98773260     0.04800
H532        H  0.58671094  0.80427226  0.46795704     0.08000
H533        H  0.64697671  0.83357560  0.47710316     0.08000
H534        H  0.55853074  0.73726933  0.11914247     0.08000
H535        H  0.62027354  0.76819070  0.11878548     0.08000
H536        H  0.58892905  0.71078938  0.10488339     0.04800
C537        C  0.81042324  0.68174997  0.45237848    -0.21000
C538        C  0.80351241  0.71478604  0.46622463    -0.07600
C539        C  0.83440720  0.74267595  0.48893001     0.13300
C540        C  0.86645604  0.73193421  0.50044653    -0.21100
C541        C  0.86234371  0.68732798  0.99268094    -0.07600
C542        C  0.83577745  0.66434282  0.96673459     0.13300
C543        C  0.83922567  0.62697627  0.95094022    -0.24400
H544        H  0.78770297  0.66137021  0.43423880     0.14500
H545        H  0.88741736  0.75108771  0.51954924     0.14600
C546        C  0.83120571  0.78116734  0.50303156    -0.24400
H547        H  0.81907378  0.61629248  0.92963206     0.04800
H548        H  0.82561971  0.59638631  0.96553194     0.08000
H549        H  0.87532613  0.63913711  0.94503485     0.08000
H550        H  0.79789434  0.76786046  0.51449029     0.08000
H551        H  0.83488691  0.80586137  0.48530095     0.08000
H552        H  0.85844116  0.79972751  0.52015295     0.04800
C553        C  0.56277660  0.47545616  0.24085644    -0.21000
C554        C  0.58580522  0.49542946  0.21384574    -0.07600
C555        C  0.56676599  0.47376892  0.18605570     0.13300
C556        C  0.52443515  0.43319397  0.18584083    -0.21100
C557        C  0.50009852  0.41434296  0.21265728    -0.07600
C558        C  0.51980814  0.43530207  0.24059632     0.13300
C559        C  0.49611400  0.41510580  0.27007458    -0.24400
H560        H  0.57769587  0.49229260  0.26213103     0.14500
H561        H  0.50953531  0.41678890  0.16445174     0.14600
C562        C  0.59128212  0.49316476  0.15665225    -0.24400
H563        H  0.51735720  0.43475498  0.28974512     0.04800
H564        H  0.48897433  0.37959592  0.27209011     0.08000
H565        H  0.46358239  0.41522337  0.27118077     0.08000
H566        H  0.62567904  0.49693166  0.15760642     0.08000
H567        H  0.59485893  0.52691440  0.15240821     0.08000
H568        H  0.57249415  0.47078786  0.13720777     0.04800
C569        C  0.31710990  0.10753330  0.11606011    -0.21000
C570        C  0.28336990  0.06649869  0.12879758    -0.07600
C571        C  0.25512113  0.06799205  0.15162088     0.13300
C572        C  0.26568069  0.11028637  0.16402869    -0.21100
C573        C  0.30396039  0.15091515  0.15431128    -0.07600
C574        C  0.32774707  0.14973528  0.12838459     0.13300
C575        C  0.36530169  0.19248605  0.11397770    -0.24400
H576        H  0.33810768  0.10645659  0.09809963     0.14500
H577        H  0.24643684  0.11110106  0.18322064     0.14600
C578        C  0.21632515  0.02514663  0.16483458    -0.24400
H579        H  0.37623152  0.18507845  0.09215395     0.04800
H580        H  0.39584925  0.20889508  0.12880370     0.08000
H581        H  0.35301011  0.21651541  0.10937174     0.08000
H582        H  0.22947024  0.00489615  0.17593044     0.08000
H583        H  0.19189832  0.00464232  0.14666232     0.08000
H584        H  0.19745114  0.03269132  0.18208790     0.04800
C585        C  0.53629775  0.09134633  0.39405642    -0.21000
C586        C  0.50038395  0.06323462  0.37414458    -0.07600
C587        C  0.50692587  0.03471944  0.35384307     0.13300
C588        C  0.54800906  0.03440472  0.35472062    -0.21100
C589        C  0.58315956  0.06178133  0.37493664    -0.07600
C590        C  0.57749266  0.09096080  0.39470060     0.13300
C591        C  0.61386774  0.12014550  0.41738603    -0.24400
H592        H  0.53187681  0.11314015  0.40977202     0.14500
H593        H  0.55280965  0.01237053  0.33940875     0.14600
C594        C  0.47127351  0.00419138  0.33109792    -0.24400
H595        H  0.60297924  0.13930170  0.43206116     0.04800
H596        H  0.64538969  0.14527373  0.40552980     0.08000
H597        H  0.62152291  0.09839956  0.43209191     0.08000
H598        H  0.46248603  0.02477816  0.31609333     0.08000
H599        H  0.44035867  0.97779191  0.34288305     0.08000
H600        H  0.48347830  0.98608485  0.31649189     0.04800
C601        C  0.42056391  0.15812493  0.29213857    -0.21000
C602        C  0.42513826  0.18111034  0.31937250    -0.07600
C603        C  0.43372314  0.22608720  0.31862069     0.13300
C604        C  0.43153325  0.24495348  0.29082427    -0.21100
C605        C  0.42078028  0.21940924  0.26403195    -0.07600
C606        C  0.41757332  0.17651392  0.26443122     0.13300
C607        C  0.40824173  0.14908691  0.23588358    -0.24400
H608        H  0.41463535  0.12375960  0.29280773     0.14500
H609        H  0.43420878  0.27804028  0.29040653     0.14600
C610        C  0.44350836  0.25318914  0.34729774    -0.24400
H611        H  0.40781795  0.11674098  0.24008224     0.04800
H612        H  0.43531376  0.16906951  0.21910528     0.08000
H613        H  0.37462878  0.14059130  0.22625476     0.08000
H614        H  0.47591900  0.25873234  0.35731892     0.08000
H615        H  0.44682330  0.28688961  0.34315090     0.08000
H616        H  0.41591317  0.23438815  0.36386224     0.04800
C617        C  0.21916262  0.88817504  0.37597134    -0.21000
C618        C  0.22151244  0.92782595  0.36438337    -0.07600
C619        C  0.18721542  0.92217726  0.34346370     0.13300
C620        C  0.15600198  0.87833764  0.33211433    -0.21100
C621        C  0.15712096  0.83926344  0.34124487    -0.07600
C622        C  0.18786716  0.84439039  0.36489149     0.13300
C623        C  0.18978983  0.80454037  0.37806582    -0.24400
H624        H  0.24396271  0.89153074  0.39277326     0.14500
H625        H  0.13160390  0.87493882  0.31498407     0.14600
C626        C  0.18368938  0.96195621  0.33216918    -0.24400
H627        H  0.21500477  0.81501794  0.39679083     0.04800
H628        H  0.20013441  0.78841021  0.36047368     0.08000
H629        H  0.15596292  0.77939024  0.38740144     0.08000
H630        H  0.21424890  0.98492917  0.31882599     0.08000
H631        H  0.18042208  0.98068845  0.35158872     0.08000
H632        H  0.15348282  0.95095753  0.31728940     0.04800
C633        C  0.37066181  0.00824730  0.26638561    -0.21000
C634        C  0.34346994  0.02459748  0.27848163    -0.07600
C635        C  0.31799158  0.03602196  0.25851289     0.13300
C636        C  0.31664052  0.02612194  0.22787511    -0.21100
C637        C  0.34140888  0.00716240  0.21604285    -0.07600
C638        C  0.37124646  0.00096900  0.23512127     0.13300
C639        C  0.40373058  0.98715788  0.22285029    -0.24400
H640        H  0.39197370  0.00173873  0.28139937     0.14500
H641        H  0.29555616  0.03299959  0.21285561     0.14600
C642        C  0.29120833  0.05785628  0.26880803    -0.24400
H643        H  0.42417792  0.98358106  0.24112883     0.04800
H644        H  0.42774859  0.01359700  0.20694763     0.08000
H645        H  0.38511373  0.95427283  0.21075263     0.08000
H646        H  0.31472064  0.09234409  0.27800398     0.08000
H647        H  0.26615271  0.03648291  0.28617303     0.08000
H648        H  0.27196186  0.06210009  0.24998421     0.04800
C649        C  0.36412286  0.96074001  0.00918609    -0.21000
C650        C  0.35133226  0.98361312  0.02984447    -0.07600
C651        C  0.34426768  0.01879449  0.01915546     0.13300
C652        C  0.34426721  0.02778672  0.48820998    -0.21100
C653        C  0.36612854  0.01232386  0.46887732    -0.07600
C654        C  0.37900145  0.98147717  0.47994829     0.13300
C655        C  0.40285357  0.96405264  0.46021705    -0.24400
H656        H  0.36875484  0.93327383  0.01718619     0.14500
H657        H  0.33346255  0.05061805  0.47950675     0.14600
C658        C  0.32713318  0.04286318  0.03912598    -0.24400
H659        H  0.41248614  0.94211890  0.47303564     0.04800
H660        H  0.43448797  0.99312578  0.45084603     0.08000
H661        H  0.37998661  0.94338050  0.44145325     0.08000
H662        H  0.35329766  0.06372591  0.05631528     0.08000
H663        H  0.29495621  0.01757193  0.05032266     0.08000
H664        H  0.31987680  0.06639153  0.02611175     0.04800
C665        C  0.09914220  0.56347814  0.28098720    -0.21000
C666        C  0.06693430  0.56613423  0.29911659    -0.07600
C667        C  0.03729838  0.52805308  0.31706627     0.13300
C668        C  0.03940660  0.48791195  0.31528919    -0.21100
C669        C  0.07036977  0.48432036  0.29610204    -0.07600
C670        C  0.10126743  0.52335840  0.27904592     0.13300
C671        C  0.13637266  0.52354767  0.25824671    -0.24400
H672        H  0.12217338  0.59282547  0.26757162     0.14500
H673        H  0.01614088  0.45887957  0.32883866     0.14600
C674        C  0.00411969  0.52971475  0.33881850    -0.24400
H675        H  0.15747892  0.55707052  0.24711990     0.04800
H676        H  0.11922285  0.49786625  0.24008533     0.08000
H677        H  0.15988610  0.51623225  0.27129258     0.08000
H678        H  0.97777214  0.53320053  0.32624512     0.08000
H679        H  0.02261584  0.55890683  0.35455413     0.08000
H680        H  0.98613651  0.49821983  0.35258141     0.04800
C681        C  0.21317204  0.30913691  0.20896072    -0.21000
C682        C  0.21985566  0.27583520  0.22286413    -0.07600
C683        C  0.18971516  0.24964236  0.24664326     0.13300
C684        C  0.15716271  0.26026174  0.25721998    -0.21100
C685        C  0.15403768  0.29675132  0.24536652    -0.07600
C686        C  0.18094490  0.31997528  0.21983456     0.13300
C687        C  0.17597022  0.35622022  0.20373200    -0.24400
H688        H  0.23500577  0.32863282  0.19036253     0.14500
H689        H  0.13613827  0.24187896  0.27640753     0.14600
C690        C  0.19289241  0.21216308  0.26255520    -0.24400
H691        H  0.19656903  0.36767981  0.18274581     0.04800
H692        H  0.18774688  0.38657471  0.21834924     0.08000
H693        H  0.13973102  0.34237523  0.19732683     0.08000
H694        H  0.22620031  0.22640344  0.27443049     0.08000
H695        H  0.18876567  0.18591643  0.24596476     0.08000
H696        H  0.16584223  0.19491293  0.27983341     0.04800
C697        C  0.97642852  0.26560263  0.43200259    -0.21000
C698        C  0.98164439  0.30290392  0.44865071    -0.07600
C699        C  0.99591232  0.34486289  0.43390819     0.13300
C700        C  0.00583194  0.34855366  0.40288999    -0.21100
C701        C  0.00326401  0.31183525  0.38692667    -0.07600
C702        C  0.98760199  0.26971495  0.40146753     0.13300
C703        C  0.98152990  0.22866178  0.38464620    -0.24400
H704        H  0.96482379  0.23325411  0.44317358     0.14500
H705        H  0.01752510  0.38065415  0.39135583     0.14600
C706        C  0.00022017  0.38543588  0.45051930    -0.24400
H707        H  0.96746229  0.19799867  0.39925852     0.04800
H708        H  0.01466628  0.23506353  0.37565321     0.08000
H709        H  0.95725929  0.22137584  0.36584111     0.08000
H710        H  0.02746478  0.39719184  0.46792570     0.08000
H711        H  0.96730048  0.37615792  0.46145947     0.08000
H712        H  0.00928714  0.41444601  0.43503612     0.04800
C713        C  0.96363498  0.33489676  0.16023452    -0.21000
C714        C  0.99216754  0.33502366  0.13747065    -0.07600
C715        C  0.03668074  0.34490946  0.14515161     0.13300
C716        C  0.05151374  0.35489846  0.17529917    -0.21100
C717        C  0.02283192  0.35409960  0.19841711    -0.07600
C718        C  0.97799207  0.34405760  0.19049750     0.13300
C719        C  0.94431489  0.34223895  0.21335923    -0.24400
H720        H  0.92945914  0.32712372  0.15425971     0.14500
H721        H  0.08561100  0.36230698  0.18086809     0.14600
C722        C  0.06788915  0.34238454  0.12215190    -0.24400
H723        H  0.91154678  0.33463556  0.20270681     0.04800
H724        H  0.95854908  0.37558435  0.22498641     0.08000
H725        H  0.93626616  0.31488717  0.23000493     0.08000
H726        H  0.07666739  0.36849649  0.10439552     0.08000
H727        H  0.05083824  0.30795285  0.11180092     0.08000
H728        H  0.10035837  0.34852315  0.13249415     0.04800
C729        C  0.84813980  0.16557396  0.30354919    -0.21000
C730        C  0.84853417  0.13633005  0.32588709    -0.07600
C731        C  0.89016682  0.13725473  0.33135709     0.13300
C732        C  0.93028357  0.17011845  0.31673948    -0.21100
C733        C  0.93094806  0.20409579  0.29819197    -0.07600
C734        C  0.88840362  0.19960979  0.28999651     0.13300
C735        C  0.88452024  0.23144163  0.26809758    -0.24400
H736        H  0.81636848  0.16420036  0.29809874     0.14500
H737        H  0.96222940  0.17196514  0.32237252     0.14600
C738        C  0.89359228  0.10543724  0.35346997    -0.24400
H739        H  0.84843238  0.21988381  0.26232202     0.04800
H740        H  0.90227124  0.23299838  0.24675432     0.08000
H741        H  0.89913927  0.26586423  0.27816805     0.08000
H742        H  0.86869172  0.06960692  0.34732235     0.08000
H743        H  0.88699163  0.11271466  0.37673310     0.08000
H744        H  0.92812828  0.10948891  0.35354767     0.04800
C745        C  0.46341316  0.49109157  0.43582728    -0.21000
C746        C  0.43139122  0.48693218  0.45746325    -0.07600
C747        C  0.44186234  0.52532782  0.47589295     0.13300
C748        C  0.48433269  0.56546020  0.47285512    -0.21100
C749        C  0.51698274  0.56829293  0.45247922    -0.07600
C750        C  0.50597596  0.53102202  0.43314244     0.13300
C751        C  0.53849844  0.53322365  0.40917063    -0.24400
H752        H  0.45557994  0.46252790  0.42121296     0.14500
H753        H  0.49285194  0.59436622  0.48733558     0.14600
C754        C  0.40957975  0.52464346  0.49945357    -0.24400
H755        H  0.52274499  0.50240642  0.39461096     0.04800
H756        H  0.56924501  0.53557109  0.41975860     0.08000
H757        H  0.54869706  0.56323318  0.39442238     0.08000
H758        H  0.39744890  0.49871676  0.01718201     0.08000
H759        H  0.37717965  0.51770839  0.48859052     0.08000
H760        H  0.42387410  0.55774332  0.51144745     0.04800
C761        C  0.11867176  0.25173979  0.00060259    -0.21000
C762        C  0.16197123  0.29730913  0.51230950    -0.07600
C763        C  0.15804959  0.32042369  0.53767977     0.13300
C764        C  0.10941644  0.29658564  0.05022335    -0.21100
C765        C  0.06994244  0.26457205  0.03460272    -0.07600
C766        C  0.07475578  0.23994620  0.01039745     0.13300
C767        C  0.03439050  0.20356173  0.99308277    -0.24400
H768        H  0.12221337  0.23502887  0.98084891     0.14500
H769        H  0.10616917  0.31459912  0.06930390     0.14600
C770        C  0.19938331  0.35711877  0.55408065    -0.24400
H771        H  0.04488388  0.18742906  0.97555856     0.04800
H772        H  0.01620214  0.21856166  0.98132098     0.08000
H773        H  0.01091269  0.17633776  0.00876304     0.08000
H774        H  0.21814416  0.38764046  0.53960824     0.08000
H775        H  0.22219510  0.34405847  0.56066836     0.08000
H776        H  0.18976752  0.36819835  0.57497886     0.04800
C777        C  0.23099737  0.41918080  0.35287837    -0.21000
C778        C  0.18507152  0.40753817  0.35481635    -0.07600
C779        C  0.16605932  0.40428095  0.38371887     0.13300
C780        C  0.18986057  0.40396763  0.40953240    -0.21100
C781        C  0.23374110  0.41048125  0.40737658    -0.07600
C782        C  0.25620876  0.42274470  0.37923421     0.13300
C783        C  0.30616615  0.43814962  0.37722170    -0.24400
H784        H  0.24635310  0.42316845  0.33085362     0.14500
H785        H  0.17291396  0.39571067  0.43126345     0.14600
C786        C  0.11965297  0.39848373  0.38807586    -0.24400
H787        H  0.31817562  0.44418382  0.35345979     0.04800
H788        H  0.31320025  0.41260881  0.38741876     0.08000
H789        H  0.32610825  0.47047813  0.38995719     0.08000
H790        H  0.09722916  0.36524684  0.39910443     0.08000
H791        H  0.10402036  0.40048189  0.36653051     0.08000
H792        H  0.12246056  0.42597321  0.40298421     0.04800
C793        C  0.33929113  0.37387616  0.08042618    -0.21000
C794        C  0.35221717  0.35603731  0.05639485    -0.07600
C795        C  0.37501957  0.33178960  0.06285864     0.13300
C796        C  0.38289946  0.32513053  0.09297672    -0.21100
C797        C  0.36837382  0.34134789  0.11707453    -0.07600
C798        C  0.34693669  0.36695520  0.11061693     0.13300
C799        C  0.33049083  0.38602795  0.13501751    -0.24400
H800        H  0.32231074  0.39285629  0.07556685     0.14500
H801        H  0.39986990  0.30611557  0.09770189     0.14600
C802        C  0.38954034  0.31080048  0.03855648    -0.24400
H803        H  0.31370326  0.40406588  0.12551193     0.04800
H804        H  0.35977885  0.41098903  0.14893687     0.08000
H805        H  0.30509074  0.35802941  0.14942922     0.08000
H806        H  0.41544226  0.33773472  0.02376594     0.08000
H807        H  0.35939502  0.28641732  0.02507667     0.08000
H808        H  0.40513796  0.29165937  0.04811180     0.04800
C809        C  0.34438433  0.28373127  0.32808092    -0.21000
C810        C  0.33437213  0.30683994  0.30587210    -0.07600
C811        C  0.31659515  0.33484687  0.31459721     0.13300
C812        C  0.31007147  0.33926797  0.34521763    -0.21100
C813        C  0.32174464  0.31768616  0.36736946    -0.07600
C814        C  0.33791722  0.28854127  0.35874354     0.13300
C815        C  0.34452507  0.25951837  0.38149303    -0.24400
H816        H  0.35662321  0.26119954  0.32141586     0.14500
H817        H  0.29483245  0.35904279  0.35182381     0.14600
C818        C  0.30235499  0.35872051  0.29208953    -0.24400
H819        H  0.35055161  0.23393186  0.37041839     0.04800
H820        H  0.31305220  0.24041090  0.39496061     0.08000
H821        H  0.37377251  0.28100085  0.39662730     0.08000
H822        H  0.27659947  0.33355458  0.27619566     0.08000
H823        H  0.33252618  0.38465922  0.27945683     0.08000
H824        H  0.28682220  0.37676616  0.30327052     0.04800
C825        C  0.27237476  0.14194623  0.42375930    -0.21000
C826        C  0.31430397  0.14552765  0.43113319    -0.07600
C827        C  0.34167569  0.17715783  0.45386543     0.13300
C828        C  0.32904498  0.20748433  0.46564293    -0.21100
C829        C  0.29038374  0.20829173  0.45503893    -0.07600
C830        C  0.26005585  0.17282761  0.43519563     0.13300
C831        C  0.21597979  0.16851101  0.42423481    -0.24400
H832        H  0.25052414  0.11697916  0.40711924     0.14500
H833        H  0.35175605  0.23316301  0.48163109     0.14600
C834        C  0.38496266  0.18032212  0.46555863    -0.24400
H835        H  0.19531265  0.13685874  0.41093104     0.04800
H836        H  0.22302898  0.19743962  0.40923049     0.08000
H837        H  0.19517751  0.16741963  0.44382707     0.08000
H838        H  0.41166302  0.19416771  0.44788929     0.08000
H839        H  0.37798644  0.14617848  0.47280076     0.08000
H840        H  0.39903920  0.20347090  0.48534831     0.04800
O841        O  0.27272535  0.32003615  0.90609046    -0.82500
C842        C  0.34253648  0.36409004  0.52447278     0.96800
O843        O  0.36474350  0.36177895  0.50235037    -0.71600
O844        O  0.31967222  0.28228424  0.97234486    -0.75200
Al845      Al  0.34580424  0.34446644  0.96118742     1.49000
C846        C  0.28754123  0.24938566  0.95838540     0.92100
O847        O  0.20976626  0.28188626  0.98050215    -0.81500
O848        O  0.27652775  0.41038016  0.95012647    -0.75000
Al849      Al  0.24410891  0.30323787  0.94410621     1.90100
O850        O  0.22816831  0.34990353  0.99648253    -0.74100
O851        O  0.35289602  0.43499531  0.98021543    -0.73900
O852        O  0.30992144  0.37138868  0.52008950    -0.79600
O853        O  0.38035995  0.40606116  0.94901673    -0.77800
O854        O  0.29389658  0.34477673  0.96358495    -1.13900
O855        O  0.33955450  0.32990408  0.91933517    -0.73100
C856        C  0.31060192  0.32414358  0.89925058     0.97600
C857        C  0.20151028  0.30726227  0.99683921     0.94000
Al858      Al  0.29109131  0.38733126  0.98528754     1.55600
O859        O  0.25668983  0.25449327  0.94654110    -0.77800
C860        C  0.38402409  0.44012042  0.96261198     0.98200
C861        C  0.24271053  0.38608206  0.93322627     0.93000
O862        O  0.22106242  0.34317506  0.93558375    -0.83100
O863        O  0.04851883  0.30763951  0.84759721    -0.82500
C864        C  0.04329050  0.36615117  0.72992517     0.96800
O865        O  0.01565745  0.36046838  0.75094546    -0.71600
O866        O  0.97511066  0.28233303  0.77964612    -0.75200
Al867      Al  0.01120236  0.34373494  0.79270240     1.49000
C868        C  0.97456495  0.24751947  0.78966498     0.92100
O869        O  0.09241648  0.28733383  0.77403463    -0.81500
O870        O  0.14480957  0.41048800  0.81164300    -0.75000
Al871      Al  0.07014361  0.30089402  0.81006721     1.90100
O872        O  0.14270754  0.35778842  0.76398226    -0.74100
O873        O  0.09671756  0.43608562  0.77809363    -0.73900
O874        O  0.08298846  0.37340198  0.73586885    -0.79600
O875        O  0.03702685  0.40483156  0.80656348    -0.77800
O876        O  0.06401423  0.34457678  0.79237980    -1.13900
O877        O  0.99771737  0.32626465  0.83411109    -0.73100
C878        C  0.01596785  0.31385415  0.85389914     0.97600
C879        C  0.12846103  0.31604193  0.76072197     0.94000
Al880      Al  0.11255846  0.39036879  0.77406086     1.55600
O881        O  0.01052420  0.25119748  0.80075497    -0.77800
C882        C  0.06857717  0.43977771  0.79415680     0.98200
C883        C  0.15129292  0.38505879  0.82933718     0.93000
O884        O  0.13065833  0.34227012  0.82538490    -0.83100
O885        O  0.33871234  0.06153158  0.82061497    -0.82500
C886        C  0.37631992  0.02832477  0.93701985     0.96800
O887        O  0.37227604  0.00317801  0.91459045    -0.71600
O888        O  0.29816112  0.97179536  0.88233516    -0.75200
Al889      Al  0.36032830  0.00716107  0.87208211     1.49000
C890        C  0.26538461  0.97248548  0.86975726     0.92100
O891        O  0.30391020  0.08397109  0.89627009    -0.81500
O892        O  0.43197649  0.14189706  0.86284570    -0.75000
Al893      Al  0.32297490  0.07140217  0.85868069     1.90100
O894        O  0.37374656  0.13309112  0.91043271    -0.74100
O895        O  0.45336034  0.08748218  0.89292849    -0.73900
O896        O  0.38706091  0.06944906  0.93333777    -0.79600
O897        O  0.42164832  0.03252101  0.86054313    -0.77800
O898        O  0.36337110  0.06034591  0.87646096    -1.13900
O899        O  0.34790121  0.00314672  0.82909443    -0.73100
C900        C  0.34433765  0.03012406  0.81099000     0.97600
C901        C  0.33125384  0.11818499  0.91201190     0.94000
Al902      Al  0.40804591  0.10455736  0.89816308     1.55600
O903        O  0.27137215  0.00972838  0.85956310    -0.77800
C904        C  0.45622149  0.06036891  0.87508465     0.98200
C905        C  0.40818442  0.15246328  0.84645829     0.93000
O906        O  0.36583492  0.13499017  0.85128936    -0.83100
O907        O  0.33574507  0.26545778  0.76709780    -0.82500
C908        C  0.37470368  0.32849819  0.64772428     0.96800
O909        O  0.37313498  0.35126424  0.66983697    -0.71600
O910        O  0.29789462  0.31195531  0.70173012    -0.75200
Al911      Al  0.36055180  0.33783496  0.71199818     1.49000
C912        C  0.26484311  0.27913822  0.71495202     0.92100
O913        O  0.29719149  0.20102296  0.69282343    -0.81500
O914        O  0.42632662  0.26891936  0.72359408    -0.75000
Al915      Al  0.31891162  0.23617942  0.72922655     1.90100
O916        O  0.36543866  0.21937991  0.67742987    -0.74100
O917        O  0.45040610  0.34388396  0.69191367    -0.73900
O918        O  0.38212407  0.29599148  0.65178610    -0.79600
O919        O  0.42315455  0.37281223  0.72344858    -0.77800
O920        O  0.36038591  0.28568972  0.70971151    -1.13900
O921        O  0.34714266  0.33276226  0.75402015    -0.73100
C922        C  0.34036484  0.30349830  0.77396548     0.97600
C923        C  0.32270781  0.19342510  0.67614960     0.94000
Al924      Al  0.40259622  0.28226201  0.68802520     1.55600
O925        O  0.27008981  0.24828857  0.72635728    -0.77800
C926        C  0.45641485  0.37542776  0.70939892     0.98200
C927        C  0.40215867  0.23563774  0.74081295     0.93000
O928        O  0.35916476  0.21364287  0.73825001    -0.83100
O929        O  0.70048719  0.70338346  0.51319779    -0.82500
C930        C  0.64439118  0.65897486  0.89587304     0.96800
O931        O  0.66700009  0.65135355  0.91544234    -0.71600
O932        O  0.71806043  0.66717728  0.96431973    -0.75200
Al933      Al  0.65482647  0.64349947  0.95716916     1.49000
C934        C  0.75298404  0.70623414  0.96472361     0.92100
O935        O  0.70831721  0.78921051  0.95544226    -0.81500
O936        O  0.60002645  0.73204695  0.97151143    -0.75000
Al937      Al  0.69744937  0.74081050  0.98235803     1.90100
O938        O  0.65501622  0.75816610  0.92112978    -0.74100
O939        O  0.56234893  0.64732101  0.95455794    -0.73900
O940        O  0.61789165  0.67330476  0.90346519    -0.79600
O941        O  0.59194663  0.60440105  0.94935057    -0.77800
O942        O  0.65511657  0.69598703  0.95950491    -1.13900
O943        O  0.64807686  0.63408015  0.49895678    -0.73100
C944        C  0.67332715  0.66185641  0.51905838     0.97600
C945        C  0.69052300  0.79236440  0.93120307     0.94000
Al946      Al  0.61268524  0.70222412  0.93939708     1.55600
O947        O  0.74857394  0.74077659  0.96419770    -0.77800
C948        C  0.55755500  0.60842609  0.95218234     0.98200
C949        C  0.61736487  0.74478952  0.99745073     0.93000
O950        O  0.65748800  0.74670358  0.50517736    -0.83100
O951        O  0.94005847  0.25045158  0.98902471    -0.82500
C952        C  0.97598428  0.32987138  0.60733427     0.96800
O953        O  0.99978963  0.35031216  0.58435518    -0.71600
O954        O  0.03261464  0.30999910  0.55141968    -0.75200
Al955      Al  0.99483036  0.33451847  0.54234714     1.49000
C956        C  0.03119771  0.27610556  0.53905522     0.92100
O957        O  0.92258141  0.19974375  0.56584373    -0.81500
O958        O  0.85880231  0.26417791  0.53522053    -0.75000
Al959      Al  0.93262952  0.23171213  0.52869205     1.90100
O960        O  0.87312320  0.21765091  0.58233202    -0.74100
O961        O  0.91167456  0.34122575  0.56405179    -0.73900
O962        O  0.93513925  0.29742388  0.60494608    -0.79600
O963        O  0.96677077  0.36838641  0.53169879    -0.77800
O964        O  0.94258657  0.28246127  0.54712609    -1.13900
O965        O  0.99873141  0.31842218  0.99897353    -0.73100
C966        C  0.97251022  0.28823007  0.98024624     0.97600
C967        C  0.88893642  0.19101137  0.58236625     0.94000
Al968      Al  0.89819615  0.28017330  0.56983262     1.55600
O969        O  0.99384872  0.24435314  0.52923306    -0.77800
C970        C  0.93674792  0.37188459  0.54579512     0.98200
C971        C  0.84927308  0.23048625  0.51847320     0.93000
O972        O  0.86879402  0.20771581  0.52233534    -0.83100
O973        O  0.73039672  0.02284786  0.93105364    -0.82500
C974        C  0.66883916  0.01403411  0.81689047     0.96800
O975        O  0.66265883  0.98604256  0.83778160    -0.71600
O976        O  0.68599463  0.95746276  0.88634011    -0.75200
Al977      Al  0.66204281  0.99611918  0.87936092     1.49000
C978        C  0.72428265  0.96123347  0.88264675     0.92100
O979        O  0.80704173  0.08759559  0.86396737    -0.81500
O980        O  0.74877739  0.13991807  0.88664329    -0.75000
Al981      Al  0.76400003  0.05404867  0.89539003     1.90100
O982        O  0.77130169  0.11072189  0.83477449    -0.74100
O983        O  0.66382300  0.09044723  0.87288187    -0.73900
O984        O  0.68489121  0.05617702  0.82214898    -0.79600
O985        O  0.62093248  0.01738642  0.87287345    -0.77800
O986        O  0.71488213  0.04887877  0.87667152    -1.13900
O987        O  0.65897529  0.00386237  0.92165735    -0.73100
C988        C  0.69028625  0.01025270  0.94015414     0.97600
C989        C  0.80644201  0.10882617  0.84077536     0.94000
Al990      Al  0.71709306  0.09509621  0.85587724     1.55600
O991        O  0.75884418  0.99989818  0.87834924    -0.77800
C992        C  0.62486503  0.05591625  0.87339910     0.98200
C993        C  0.76824204  0.13848024  0.91058071     0.93000
O994        O  0.77600459  0.10681333  0.91568283    -0.83100
O995        O  0.67585172  0.94001948  0.57225502    -0.82500
C996        C  0.63805754  0.95130655  0.69377862     0.96800
O997        O  0.64553767  0.98115185  0.67402881    -0.71600
O998        O  0.72137089  0.01622254  0.64407415    -0.75200
Al999      Al  0.65925462  0.98592180  0.63196684     1.49000
C1000       C  0.75287812  0.01894131  0.62798411     0.92100
O1001       O  0.71498040  0.90725926  0.64323756    -0.81500
O1002       O  0.58682400  0.85033386  0.61105961    -0.85800
Al1003     Al  0.69430216  0.92440478  0.60822263     1.90100
O1004       O  0.64559739  0.85627584  0.65751441    -0.74100
O1005       O  0.56395395  0.90011651  0.64431650    -0.73900
O1006       O  0.62706146  0.91130929  0.68640074    -0.79600
O1007       O  0.59847092  0.96516589  0.62069036    -0.77800
O1008       O  0.65415288  0.93153664  0.62962025    -1.13900
O1009       O  0.67356690  0.99959291  0.58972717    -0.73100
C1010       C  0.67348723  0.97537367  0.56794886     0.97600
C1011       C  0.68837862  0.87221549  0.65844012     0.94000
Al1012     Al  0.60936197  0.88334410  0.64827132     1.55600
O1013       O  0.74516994  0.98528583  0.61192984    -0.77800
C1014       C  0.56270082  0.93213387  0.63109562     0.98200
C1015       C  0.61122477  0.84165591  0.59413184     0.93000
O1016       O  0.65393086  0.86241122  0.59743050    -0.83100
O1017       O  0.03508164  0.71425974  0.73849086    -0.82500
C1018       C  0.03036689  0.66018750  0.85402976     0.96800
O1019       O  0.00170882  0.65434834  0.83357892    -0.71600
O1020       O  0.97287534  0.67661793  0.78448716    -0.75200
Al1021     Al  0.00936098  0.65021951  0.79178782     1.49000
C1022       C  0.97902563  0.71593481  0.78751088     0.92100
O1023       O  0.10784515  0.79495076  0.80118563    -0.81500
O1024       O  0.15451074  0.73271989  0.78191859    -0.75000
Al1025     Al  0.07024363  0.74975420  0.77212845     1.90100
O1026       O  0.12783112  0.75951113  0.83299878    -0.74100
O1027       O  0.10199519  0.64748315  0.79747828    -0.73900
O1028       O  0.07198533  0.67420750  0.84784493    -0.79600
O1029       O  0.02851148  0.60795064  0.79907537    -0.77800
O1030       O  0.06368688  0.70159573  0.79261772    -1.13900
O1031       O  0.01466054  0.64329395  0.74956487    -0.73100
C1032       C  0.02229868  0.67387495  0.73031159     0.97600
C1033       C  0.12867796  0.79529514  0.82489738     0.94000
Al1034     Al  0.10990314  0.70333692  0.81326565     1.55600
O1035       O  0.01890963  0.74945204  0.79015722    -0.77800
C1036       C  0.06591586  0.60940050  0.79824005     0.98200
C1037       C  0.15323268  0.75050769  0.75716296     0.93000
O1038       O  0.12087796  0.75689160  0.75074887    -0.83100
O1039       O  0.29365858  0.97588906  0.67639100    -0.82500
C1040       C  0.34516695  0.97234241  0.56224661     0.96800
O1041       O  0.35119655  0.00215583  0.58159858    -0.71600
O1042       O  0.33035483  0.03542332  0.62859693    -0.75200
Al1043     Al  0.35718255  0.99872901  0.62332292     1.49000
C1044       C  0.29051878  0.02857147  0.62646428     0.92100
O1045       O  0.21284290  0.89971296  0.61434678    -0.81500
O1046       O  0.27438116  0.85409654  0.63847043    -0.75000
Al1047     Al  0.25751361  0.93871541  0.64351316     1.90100
O1048       O  0.25010190  0.87867212  0.58507832    -0.74100
O1049       O  0.35954991  0.90641092  0.62435943    -0.73900
O1050       O  0.33495566  0.93227536  0.57010373    -0.79600
O1051       O  0.39982882  0.97910429  0.61774999    -0.77800
O1052       O  0.30598655  0.94428134  0.62423829    -1.13900
O1053       O  0.36559834  0.99818004  0.66580942    -0.73100
C1054       C  0.33521022  0.99349622  0.68431474     0.97600
C1055       C  0.21411303  0.87850969  0.59134881     0.94000
Al1056     Al  0.30485565  0.89697390  0.60602666     1.55600
O1057       O  0.25751005  0.98858386  0.62366789    -0.77800
C1058       C  0.39781736  0.94205748  0.62302134     0.98200
C1059       C  0.25664985  0.85739331  0.66265166     0.93000
O1060       O  0.24988255  0.88986680  0.66683017    -0.83100
O1061       O  0.73486592  0.66133896  0.65340118    -0.82500
C1062       C  0.67443469  0.62609492  0.77289220     0.96800
O1063       O  0.65148412  0.62815844  0.75090289    -0.71600
O1064       O  0.68733532  0.70056143  0.71705642    -0.75200
Al1065     Al  0.66335192  0.63816852  0.70831802     1.49000
C1066       C  0.71940766  0.73402060  0.70390045     0.92100
O1067       O  0.80061328  0.70836743  0.72611035    -0.81500
O1068       O  0.73876825  0.57798083  0.69868384    -0.75000
Al1069     Al  0.76493127  0.68293667  0.69041996     1.90100
O1070       O  0.78612679  0.64217513  0.74371767    -0.74100
O1071       O  0.66230184  0.55084070  0.72995308    -0.73900
O1072       O  0.70810732  0.62067541  0.76878381    -0.79600
O1073       O  0.62985200  0.57544118  0.69885999    -0.77800
O1074       O  0.71685157  0.64091397  0.71086423    -1.13900
O1075       O  0.66645990  0.64745951  0.66536740    -0.73100
C1076       C  0.69505947  0.65115432  0.64570385     0.97600
C1077       C  0.81140008  0.68508969  0.74273735     0.94000
Al1078     Al  0.72329571  0.60115251  0.73338979     1.55600
O1079       O  0.74999535  0.72960474  0.69132627    -0.77800
C1080       C  0.62923907  0.54353853  0.71334111     0.98200
C1081       C  0.77234146  0.60335067  0.68204796     0.93000
O1082       O  0.79095111  0.64606720  0.68332527    -0.83100
O1083       O  0.98515524  0.68594665  0.59435334    -0.82500
C1084       C  0.97858502  0.62863209  0.98016664     0.96800
O1085       O  0.00835128  0.64800466  0.00066389    -0.71600
O1086       O  0.04607822  0.70445835  0.54828929    -0.75200
Al1087     Al  0.00433844  0.64155720  0.54180440     1.49000
C1088       C  0.04381540  0.73979488  0.54479262     0.92100
O1089       O  0.91835890  0.69979027  0.52999332    -0.81500
O1090       O  0.86304359  0.58667486  0.55659146    -0.75000
Al1091     Al  0.95203767  0.68908071  0.56013548     1.90100
O1092       O  0.88641774  0.63736789  0.50370473    -0.74100
O1093       O  0.90819643  0.54902259  0.53840124    -0.73900
O1094       O  0.93656545  0.60204280  0.98662317    -0.79600
O1095       O  0.98102726  0.57903455  0.53497438    -0.77800
O1096       O  0.95261436  0.64297867  0.54150245    -1.13900
O1097       O  0.99975593  0.63083074  0.58405289    -0.73100
C1098       C  0.99688162  0.65756749  0.60259822     0.97600
C1099       C  0.89326603  0.67662816  0.50832512     0.94000
Al1100     Al  0.90326370  0.59856807  0.52293120     1.55600
O1101       O  0.00555353  0.73631515  0.54105774    -0.77800
C1102       C  0.94235759  0.54446676  0.53672755     0.98200
C1103       C  0.86793167  0.61019567  0.57986322     0.93000
O1104       O  0.90026315  0.65054092  0.58220333    -0.83100
C1105       C  0.86086456  0.60230994  0.63466460    -0.21000
C1106       C  0.83839502  0.59135020  0.60658846    -0.07600
C1107       C  0.79056603  0.57135528  0.60558421     0.13300
C1108       C  0.76719977  0.56844595  0.63248997    -0.21100
C1109       C  0.79110642  0.58546491  0.65985152    -0.07600
C1110       C  0.83802038  0.60031029  0.66123292     0.13300
C1111       C  0.86485671  0.61777890  0.69028714    -0.24400
H1112       H  0.89752131  0.61673676  0.63539849     0.14500
H1113       H  0.73123102  0.55762454  0.63152332     0.14600
C1114       C  0.76495124  0.55647567  0.57611171    -0.24400
H1115       H  0.90120950  0.62809339  0.68718016     0.04800
H1116       H  0.85010928  0.59072094  0.70773590     0.08000
H1117       H  0.86412699  0.64810391  0.69858060     0.08000
H1118       H  0.76897128  0.52886321  0.56611598     0.08000
H1119       H  0.77860537  0.58543077  0.56011365     0.08000
H1120       H  0.72795882  0.54350056  0.57918956     0.04800
C1121       C  0.13196910  0.85094797  0.57994728    -0.21000
C1122       C  0.17208252  0.85058912  0.57267569    -0.07600
C1123       C  0.16963321  0.82021191  0.54967243     0.13300
C1124       C  0.12687926  0.78746821  0.53818126    -0.21100
C1125       C  0.08645778  0.78430192  0.54841463    -0.07600
C1126       C  0.08927068  0.81851918  0.56786428     0.13300
C1127       C  0.04729313  0.81945708  0.57747528    -0.24400
H1128       H  0.13350841  0.87516152  0.59643840     0.14500
H1129       H  0.12465202  0.76186167  0.52260804     0.14600
C1130       C  0.21104263  0.81992295  0.53779229    -0.24400
H1131       H  0.05589413  0.84869499  0.59263732     0.04800
H1132       H  0.02361294  0.78788112  0.58980391     0.08000
H1133       H  0.02972026  0.82266323  0.55724424     0.08000
H1134       H  0.22654741  0.80941579  0.55583891     0.08000
H1135       H  0.23625466  0.85422591  0.52916505     0.08000
H1136       H  0.20227714  0.79553254  0.51880953     0.04800
C1137       C  0.22853677  0.81070935  0.74129221    -0.21000
C1138       C  0.19095787  0.76772343  0.73544275    -0.07600
C1139       C  0.18346209  0.74988956  0.70580432     0.13300
C1140       C  0.20937925  0.77832015  0.68181198    -0.21100
C1141       C  0.24293432  0.82375011  0.68731721    -0.07600
C1142       C  0.25479020  0.83887948  0.71759907     0.13300
C1143       C  0.29312728  0.88577615  0.72551729    -0.24400
H1144       H  0.23463495  0.82423091  0.76410066     0.14500
H1145       H  0.20081907  0.76628246  0.65872604     0.14600
C1146       C  0.14714919  0.70133503  0.69965550    -0.24400
H1147       H  0.31732048  0.88316975  0.74115767     0.04800
H1148       H  0.27934862  0.90542572  0.73668715     0.08000
H1149       H  0.31248420  0.90461641  0.70531618     0.08000
H1150       H  0.11371395  0.69475500  0.70790750     0.08000
H1151       H  0.15587000  0.67819430  0.71176568     0.08000
H1152       H  0.14402025  0.69315156  0.67516756     0.04800
C1153       C  0.04818088  0.67735933  0.90811451    -0.21000
C1154       C  0.01584198  0.65131746  0.88595818    -0.07600
C1155       C  0.97138423  0.61768417  0.89490499     0.13300
C1156       C  0.96076683  0.61099412  0.92571659    -0.21100
C1157       C  0.99301274  0.63719525  0.94801870    -0.07600
C1158       C  0.03754647  0.67131033  0.93890351     0.13300
C1159       C  0.07430554  0.70245087  0.96090855    -0.24400
H1160       H  0.08209351  0.70336141  0.90121235     0.14500
H1161       H  0.92671473  0.58501441  0.93235414     0.14600
C1162       C  0.93493037  0.58802405  0.87242608    -0.24400
H1163       H  0.10606182  0.72769339  0.94926096     0.04800
H1164       H  0.08350728  0.68234137  0.97605934     0.08000
H1165       H  0.06236437  0.72189696  0.97433703     0.08000
H1166       H  0.94719021  0.57020051  0.85771089     0.08000
H1167       H  0.92574381  0.60916278  0.85852154     0.08000
H1168       H  0.90327353  0.56179941  0.88366295     0.04800
C1169       C  0.98141978  0.61990027  0.65256223    -0.21000
C1170       C  0.00873103  0.65784847  0.63439713    -0.07600
C1171       C  0.04343118  0.69826296  0.64754703     0.13300
C1172       C  0.04735058  0.70137949  0.67884408    -0.21100
C1173       C  0.01823793  0.66473497  0.69751268    -0.07600
C1174       C  0.98591794  0.62276221  0.68423210     0.13300
C1175       C  0.95473913  0.58194837  0.70311395    -0.24400
H1176       H  0.95505848  0.58885870  0.64205944     0.14500
H1177       H  0.07320524  0.73319414  0.68884732     0.14600
C1178       C  0.07628554  0.73836787  0.62862165    -0.24400
H1179       H  0.93026750  0.55279777  0.68890615     0.04800
H1180       H  0.93480449  0.59060344  0.71874395     0.08000
H1181       H  0.97517452  0.57086998  0.71637568     0.08000
H1182       H  0.05770660  0.75217095  0.61617681     0.08000
H1183       H  0.09367537  0.72758156  0.61228034     0.08000
H1184       H  0.10289386  0.76634034  0.64263420     0.04800
C1185       C  0.93843859  0.74745578  0.75938645    -0.21000
C1186       C  0.93886262  0.72142485  0.78384248    -0.07600
C1187       C  0.89742565  0.69157326  0.79851549     0.13300
C1188       C  0.85629813  0.68501841  0.78658230    -0.21100
C1189       C  0.85524813  0.70611247  0.75960069    -0.07600
C1190       C  0.89699299  0.73963287  0.74668554     0.13300
C1191       C  0.89822361  0.76403038  0.71799200    -0.24400
H1192       H  0.97024782  0.77013210  0.74805692     0.14500
H1193       H  0.82439805  0.65998585  0.79684331     0.14600
C1194       C  0.89605759  0.66401526  0.82551334    -0.24400
H1195       H  0.93372907  0.78843742  0.71087220     0.04800
H1196       H  0.88051898  0.78349119  0.72148635     0.08000
H1197       H  0.88132663  0.73904912  0.69941445     0.08000
H1198       H  0.91997996  0.68680522  0.84319028     0.08000
H1199       H  0.90563005  0.63875862  0.81860769     0.08000
H1200       H  0.86139433  0.64493987  0.83548270     0.04800
C1201       C  0.43766266  0.89772791  0.62315297    -0.21000
C1202       C  0.44036047  0.94011885  0.62636165    -0.07600
C1203       C  0.48362401  0.97941319  0.63189915     0.13300
C1204       C  0.52248876  0.97519341  0.63313099    -0.21100
C1205       C  0.51974561  0.93303191  0.62936916    -0.07600
C1206       C  0.47670015  0.89363666  0.62467547     0.13300
C1207       C  0.47176219  0.84750372  0.62023245    -0.24400
H1208       H  0.40483008  0.86753257  0.61893039     0.14500
H1209       H  0.55549727  0.00520843  0.63738221     0.14600
C1210       C  0.48970045  0.02596078  0.63705805    -0.24400
H1211       H  0.43596529  0.82102014  0.61503510     0.04800
H1212       H  0.48203160  0.83693415  0.64112363     0.08000
H1213       H  0.49344485  0.84875945  0.60113913     0.08000
H1214       H  0.46775240  0.02461864  0.65598327     0.08000
H1215       H  0.48099771  0.03807476  0.61620094     0.08000
H1216       H  0.52548342  0.05162066  0.64302401     0.04800
C1217       C  0.75108041  0.81053535  0.68036919    -0.21000
C1218       C  0.71883963  0.77721427  0.69996841    -0.07600
C1219       C  0.68323372  0.78319189  0.71122155     0.13300
C1220       C  0.67703084  0.81764668  0.69904067    -0.21100
C1221       C  0.70534621  0.84664751  0.67613146    -0.07600
C1222       C  0.74487417  0.84520639  0.66830722     0.13300
C1223       C  0.77918565  0.87796512  0.64598312    -0.24400
H1224       H  0.77968416  0.80763621  0.67261021     0.14500
H1225       H  0.64779598  0.81992756  0.70611703     0.14600
C1226       C  0.65033250  0.75280660  0.73512501    -0.24400
H1227       H  0.80808314  0.87191514  0.64287211     0.04800
H1228       H  0.79349866  0.91340270  0.65425075     0.08000
H1229       H  0.76272692  0.87404909  0.62360596     0.08000
H1230       H  0.66957165  0.75146893  0.75504157     0.08000
H1231       H  0.62768601  0.71808873  0.72601749     0.08000
H1232       H  0.62794309  0.76565614  0.74301470     0.04800
C1233       C  0.66719668  0.96271084  0.77728544    -0.21000
C1234       C  0.65818200  0.99703030  0.78567136    -0.07600
C1235       C  0.63965124  0.01404666  0.76424687     0.13300
C1236       C  0.63230867  0.99739218  0.73461543    -0.21100
C1237       C  0.64275034  0.96410653  0.72594435    -0.07600
C1238       C  0.65989823  0.94604561  0.74770669     0.13300
C1239       C  0.67231848  0.91061344  0.73990565    -0.24400
H1240       H  0.68125404  0.94967266  0.79385650     0.14500
H1241       H  0.61855911  0.01068953  0.71800326     0.14600
C1242       C  0.62652075  0.04881353  0.77249599    -0.24400
H1243       H  0.68754325  0.90249599  0.75945666     0.04800
H1244       H  0.69761455  0.92308812  0.72130666     0.08000
H1245       H  0.64123131  0.87859191  0.73302846     0.08000
H1246       H  0.65734406  0.08160913  0.77855081     0.08000
H1247       H  0.60251670  0.03628855  0.79184076     0.08000
H1248       H  0.60945773  0.05554716  0.75340410     0.04800
C1249       C  0.63598086  0.96179774  0.51808282    -0.21000
C1250       C  0.67336582  0.98953542  0.53674393    -0.07600
C1251       C  0.71269089  0.02665771  0.52440371     0.13300
C1252       C  0.71700513  0.03016632  0.99296652    -0.21100
C1253       C  0.68113091  0.00281129  0.97300302    -0.07600
C1254       C  0.63959561  0.96724850  0.98484327     0.13300
C1255       C  0.59968215  0.93703535  0.96471941    -0.24400
H1256       H  0.60593562  0.93333208  0.52795072     0.14500
H1257       H  0.74870620  0.05770148  0.98405216     0.14600
C1258       C  0.75392147  0.05619830  0.54372748    -0.24400
H1259       H  0.57067531  0.91018919  0.97778469     0.04800
H1260       H  0.61005366  0.92002436  0.94778196     0.08000
H1261       H  0.58731469  0.95759620  0.95302557     0.08000
H1262       H  0.76636126  0.03488639  0.55419145     0.08000
H1263       H  0.74482192  0.07276146  0.56176694     0.08000
H1264       H  0.78229814  0.08322348  0.53033860     0.04800
C1265       C  0.90481076  0.46440483  0.55502973    -0.21000
C1266       C  0.93783015  0.49884955  0.53672683    -0.07600
C1267       C  0.96670851  0.48945114  0.51905929     0.13300
C1268       C  0.96370264  0.44705156  0.52164924    -0.21100
C1269       C  0.93304241  0.41345299  0.54165278    -0.07600
C1270       C  0.90211659  0.42195112  0.55796403     0.13300
C1271       C  0.86663069  0.38728504  0.57890643    -0.24400
H1272       H  0.88210470  0.47140613  0.56803420     0.14500
H1273       H  0.98668661  0.44076599  0.50840487     0.14600
C1274       C  0.00049588  0.52359162  0.49697918    -0.24400
H1275       H  0.84490641  0.39958521  0.58888936     0.04800
H1276       H  0.88343033  0.38001784  0.59788362     0.08000
H1277       H  0.84386410  0.35550739  0.56626648     0.08000
H1278       H  0.02785322  0.55340363  0.50922398     0.08000
H1279       H  0.98275574  0.53486673  0.48114392     0.08000
H1280       H  0.01727998  0.50893047  0.48331729     0.04800
C1281       C  0.83940707  0.23684137  0.96190204    -0.21000
C1282       C  0.81841020  0.21691648  0.98948409    -0.07600
C1283       C  0.77536566  0.17688198  0.98949308     0.13300
C1284       C  0.75613407  0.15526241  0.96198881    -0.21100
C1285       C  0.78006509  0.17190628  0.93481106    -0.07600
C1286       C  0.82117278  0.21404136  0.93443946     0.13300
C1287       C  0.84784507  0.23246326  0.90567297    -0.24400
H1288       H  0.87291426  0.26726895  0.96213776     0.14500
H1289       H  0.72466887  0.12259447  0.96204475     0.14600
C1290       C  0.75132148  0.15923840  0.52219365    -0.24400
H1291       H  0.87975542  0.26552948  0.90945141     0.04800
H1292       H  0.82675115  0.23767551  0.88873533     0.08000
H1293       H  0.85730036  0.20805248  0.89648524     0.08000
H1294       H  0.74526053  0.18439298  0.53401090     0.08000
H1295       H  0.77270395  0.15099194  0.53683609     0.08000
H1296       H  0.71842615  0.12350853  0.01468692     0.04800
C1297       C  0.82857799  0.06532971  0.60328920    -0.21000
C1298       C  0.79659311  0.06326616  0.62430098    -0.07600
C1299       C  0.80347801  0.10480006  0.63658172     0.13300
C1300       C  0.83734544  0.14628060  0.62428773    -0.21100
C1301       C  0.86454777  0.14786217  0.60000484    -0.07600
C1302       C  0.86205699  0.10687441  0.59070679     0.13300
C1303       C  0.89197958  0.10583068  0.56607035    -0.24400
H1304       H  0.82494187  0.03394801  0.59458084     0.14500
H1305       H  0.84049577  0.17775954  0.63240196     0.14600
C1306       C  0.77428057  0.10642663  0.66154898    -0.24400
H1307       H  0.88526313  0.07082844  0.56187513     0.04800
H1308       H  0.92841017  0.12723284  0.57264533     0.08000
H1309       H  0.88545360  0.11846924  0.54460203     0.08000
H1310       H  0.77393463  0.08560897  0.68097090     0.08000
H1311       H  0.73904503  0.09387857  0.65325705     0.08000
H1312       H  0.78749714  0.14167105  0.66990410     0.04800
C1313       C  0.65572885  0.61334406  0.85741143    -0.21000
C1314       C  0.64815685  0.64930849  0.86379594    -0.07600
C1315       C  0.64587972  0.67547936  0.83968897     0.13300
C1316       C  0.65267773  0.66575208  0.81002163    -0.21100
C1317       C  0.66248085  0.63124179  0.80396923    -0.07600
C1318       C  0.66295652  0.60396755  0.82785596     0.13300
C1319       C  0.67009429  0.56433619  0.82235455    -0.24400
H1320       H  0.65640100  0.59260173  0.87576519     0.14500
H1321       H  0.65223090  0.68642549  0.79155223     0.14600
C1322       C  0.63897752  0.71522785  0.84502301    -0.24400
H1323       H  0.66576849  0.54469957  0.84335147     0.04800
H1324       H  0.70515266  0.57660706  0.81403385     0.08000
H1325       H  0.64484783  0.54083792  0.80550234     0.08000
H1326       H  0.66611012  0.73994753  0.86037176     0.08000
H1327       H  0.60494840  0.70335426  0.85509135     0.08000
H1328       H  0.64074401  0.73326350  0.82370034     0.04800
C1329       C  0.63810547  0.64175719  0.56925123    -0.21000
C1330       C  0.67292187  0.64694530  0.55001005    -0.07600
C1331       C  0.71167806  0.64765385  0.56186743     0.13300
C1332       C  0.71603254  0.64567145  0.59309774    -0.21100
C1333       C  0.68340469  0.64493661  0.61298391    -0.07600
C1334       C  0.64279840  0.64093608  0.60075522     0.13300
C1335       C  0.60510151  0.63774838  0.62029551    -0.24400
H1336       H  0.60864999  0.64164660  0.55965589     0.14500
H1337       H  0.74646464  0.64700904  0.60193682     0.14600
C1338       C  0.74946242  0.65260841  0.54159569    -0.24400
H1339       H  0.57608695  0.63433325  0.60658547     0.04800
H1340       H  0.61803884  0.66900636  0.63422477     0.08000
H1341       H  0.59171235  0.60732226  0.63506942     0.08000
H1342       H  0.76385900  0.68489511  0.52884690     0.08000
H1343       H  0.73594271  0.62369926  0.52544774     0.08000
H1344       H  0.77787563  0.65355984  0.55463871     0.04800
C1345       C  0.75199606  0.92027508  0.91371393    -0.21000
C1346       C  0.72780351  0.92033524  0.88803715    -0.07600
C1347       C  0.69751470  0.87862241  0.87385630     0.13300
C1348       C  0.68896228  0.83766733  0.88726333    -0.21100
C1349       C  0.70920284  0.83699807  0.91500138    -0.07600
C1350       C  0.74283347  0.87933280  0.92766935     0.13300
C1351       C  0.76726390  0.88240799  0.95686138    -0.24400
H1352       H  0.77489400  0.95245444  0.92466129     0.14500
H1353       H  0.66398360  0.80593858  0.87682059     0.14600
C1354       C  0.67317801  0.87726754  0.84496308    -0.24400
H1355       H  0.79259565  0.91817871  0.96289835     0.04800
H1356       H  0.78595100  0.86367060  0.95472294     0.08000
H1357       H  0.74239050  0.86812392  0.97565863     0.08000
H1358       H  0.69865130  0.89765063  0.82739560     0.08000
H1359       H  0.65043069  0.89130193  0.84863962     0.08000
H1360       H  0.65188347  0.84197785  0.83629345     0.04800
C1361       C  0.59721320  0.82633237  0.54015020    -0.21000
C1362       C  0.59216256  0.80849206  0.56937831    -0.07600
C1363       C  0.58554379  0.76453569  0.57329428     0.13300
C1364       C  0.59006179  0.74179298  0.54830140    -0.21100
C1365       C  0.60085476  0.76228249  0.51964167    -0.07600
C1366       C  0.60194893  0.80380382  0.51513913     0.13300
C1367       C  0.59424761  0.81720828  0.98642246    -0.24400
H1368       H  0.60280645  0.86036960  0.53738308     0.14500
H1369       H  0.58895030  0.70971919  0.55159238     0.14600
C1370       C  0.57719443  0.74336161  0.60421222    -0.24400
H1371       H  0.61363119  0.85957204  0.48536331     0.04800
H1372       H  0.56700187  0.79190829  0.97136417     0.08000
H1373       H  0.62807993  0.82779894  0.97640100     0.08000
H1374       H  0.54580176  0.74063451  0.61384163     0.08000
H1375       H  0.60650164  0.76464030  0.61938802     0.08000
H1376       H  0.57255255  0.70870402  0.60334742     0.04800
C1377       C  0.80388803  0.67549118  0.95559986    -0.21000
C1378       C  0.79784970  0.70923981  0.96915916    -0.07600
C1379       C  0.82865369  0.73646990  0.99216301     0.13300
C1380       C  0.86036735  0.72511317  0.00364863    -0.21100
C1381       C  0.86860225  0.69417875  0.48971554    -0.07600
C1382       C  0.84294670  0.67144421  0.46345208     0.13300
C1383       C  0.84831358  0.63549427  0.44724958    -0.24400
H1384       H  0.78100031  0.65532213  0.93746607     0.14500
H1385       H  0.88156320  0.74412209  0.02270790     0.14600
C1386       C  0.82585274  0.77508087  0.00646560    -0.24400
H1387       H  0.82916888  0.62543724  0.42553541     0.04800
H1388       H  0.83483628  0.60428627  0.46119483     0.08000
H1389       H  0.88486025  0.64884213  0.44202523     0.08000
H1390       H  0.79222724  0.76211132  0.01742356     0.08000
H1391       H  0.83063145  0.80043213  0.98893776     0.08000
H1392       H  0.85258896  0.79277157  0.02402551     0.04800
C1393       C  0.56327309  0.48047050  0.73927111    -0.21000
C1394       C  0.58793198  0.49804264  0.71246227    -0.07600
C1395       C  0.57080546  0.47378705  0.68521971     0.13300
C1396       C  0.52853161  0.43301532  0.68524920    -0.21100
C1397       C  0.50238864  0.41661673  0.71173398    -0.07600
C1398       C  0.52039778  0.44028738  0.73922775     0.13300
C1399       C  0.49498178  0.42318280  0.76857659    -0.24400
H1400       H  0.57684529  0.49931558  0.76014011     0.14500
H1401       H  0.51506424  0.41466840  0.66421110     0.14600
C1402       C  0.59726275  0.49078509  0.65622731    -0.24400
H1403       H  0.51533134  0.44450673  0.78801556     0.04800
H1404       H  0.48711161  0.38779000  0.77275233     0.08000
H1405       H  0.46280249  0.42401956  0.76773383     0.08000
H1406       H  0.63145790  0.49449467  0.65908270     0.08000
H1407       H  0.60144050  0.52427872  0.65010429     0.08000
H1408       H  0.57963699  0.46694919  0.63718069     0.04800
C1409       C  0.31564628  0.10920585  0.61757817    -0.21000
C1410       C  0.28422902  0.06802237  0.63130914    -0.07600
C1411       C  0.25761751  0.06879815  0.65557818     0.13300
C1412       C  0.26781314  0.11088351  0.66814287    -0.21100
C1413       C  0.30392475  0.15194928  0.65700994    -0.07600
C1414       C  0.32565175  0.15118437  0.62993683     0.13300
C1415       C  0.36029024  0.19430908  0.61428014    -0.24400
H1416       H  0.33532986  0.10858368  0.59857640     0.14500
H1417       H  0.25017556  0.11140855  0.68833479     0.14600
C1418       C  0.22096380  0.02557099  0.66988713    -0.24400
H1419       H  0.36997529  0.18703089  0.59194419     0.04800
H1420       H  0.39199063  0.21259738  0.62789832     0.08000
H1421       H  0.34576721  0.21666219  0.61045531     0.08000
H1422       H  0.23589439  0.00615795  0.67976706     0.08000
H1423       H  0.19509400  0.00437593  0.65260604     0.08000
H1424       H  0.20330045  0.03259312  0.68830883     0.04800
C1425       C  0.54020091  0.09757186  0.88351509    -0.21000
C1426       C  0.49980241  0.06015341  0.87226082    -0.07600
C1427       C  0.50161142  0.02229850  0.86055101     0.13300
C1428       C  0.54299256  0.02265340  0.86128043    -0.21100
C1429       C  0.58305916  0.05952492  0.87316074    -0.07600
C1430       C  0.58175894  0.09792074  0.88399699     0.13300
C1431       C  0.62344056  0.13885122  0.89691500    -0.24400
H1432       H  0.53923387  0.12671881  0.89233015     0.14500
H1433       H  0.54399093  0.99354641  0.85239433     0.14600
C1434       C  0.46026473  0.98053908  0.84791611    -0.24400
H1435       H  0.61553449  0.16463264  0.90560722     0.04800
H1436       H  0.64975119  0.15549261  0.87914723     0.08000
H1437       H  0.63736028  0.12828651  0.91596348     0.08000
H1438       H  0.44695269  0.98986919  0.82790279     0.08000
H1439       H  0.43349106  0.96472324  0.86549333     0.08000
H1440       H  0.46834367  0.95432064  0.84043908     0.04800
C1441       C  0.42170325  0.15940890  0.79189139    -0.21000
C1442       C  0.42722722  0.18162772  0.81957559    -0.07600
C1443       C  0.43720690  0.22706933  0.81968316     0.13300
C1444       C  0.43416131  0.24685549  0.79246542    -0.21100
C1445       C  0.42237583  0.22206823  0.76527915    -0.07600
C1446       C  0.41890219  0.17906452  0.76468918     0.13300
C1447       C  0.40961758  0.15292015  0.73557433    -0.24400
H1448       H  0.41515585  0.12481797  0.79182559     0.14500
H1449       H  0.43766735  0.28029494  0.79279563     0.14600
C1450       C  0.45007195  0.25380395  0.84865808    -0.24400
H1451       H  0.40923486  0.12043948  0.73895278     0.04800
H1452       H  0.43675376  0.17365243  0.71900673     0.08000
H1453       H  0.37604307  0.14487548  0.72612131     0.08000
H1454       H  0.48314118  0.25866165  0.85687718     0.08000
H1455       H  0.45370448  0.28783048  0.84550672     0.08000
H1456       H  0.42409499  0.23493460  0.86621278     0.04800
C1457       C  0.21894935  0.88820438  0.87650973    -0.21000
C1458       C  0.22217127  0.92781591  0.86408784    -0.07600
C1459       C  0.18835079  0.92227186  0.84281870     0.13300
C1460       C  0.15639719  0.87832600  0.83219169    -0.21100
C1461       C  0.15678785  0.83917296  0.84201226    -0.07600
C1462       C  0.18721584  0.84432017  0.86585815     0.13300
C1463       C  0.18829050  0.80439077  0.87970031    -0.24400
H1464       H  0.24347029  0.89160617  0.89354795     0.14500
H1465       H  0.13231076  0.87493443  0.81482601     0.14600
C1466       C  0.18641402  0.96224104  0.83009210    -0.24400
H1467       H  0.21298807  0.81491391  0.89874567     0.04800
H1468       H  0.19886773  0.78780039  0.86259974     0.08000
H1469       H  0.15411630  0.77961703  0.88874007     0.08000
H1470       H  0.21729818  0.98367165  0.81653662     0.08000
H1471       H  0.18384487  0.98254215  0.84876371     0.08000
H1472       H  0.15643714  0.95134099  0.81500612     0.04800
C1473       C  0.37316033  0.00839052  0.76612542    -0.21000
C1474       C  0.34624461  0.02526925  0.77795532    -0.07600
C1475       C  0.32248718  0.03855438  0.75780144     0.13300
C1476       C  0.32266068  0.03022735  0.72709151    -0.21100
C1477       C  0.34650069  0.01019805  0.71553046    -0.07600
C1478       C  0.37474463  0.00204588  0.73483611     0.13300
C1479       C  0.40648896  0.98714974  0.72274298    -0.24400
H1480       H  0.39332199  0.00061003  0.78136723     0.14500
H1481       H  0.30303918  0.03867906  0.71179443     0.14600
C1482       C  0.29559379  0.06035537  0.76795995    -0.24400
H1483       H  0.42552577  0.98182671  0.74120155     0.04800
H1484       H  0.43174605  0.01388687  0.70754481     0.08000
H1485       H  0.38755205  0.95496840  0.70988404     0.08000
H1486       H  0.31882795  0.09432522  0.77795700     0.08000
H1487       H  0.26952748  0.03830627  0.78463016     0.08000
H1488       H  0.27747661  0.06574719  0.74890047     0.04800
C1489       C  0.37086341  0.96809090  0.51043313    -0.21000
C1490       C  0.35053407  0.98506008  0.52998488    -0.07600
C1491       C  0.33609339  0.01453654  0.51848394     0.13300
C1492       C  0.35220894  0.03135835  0.98879820    -0.21100
C1493       C  0.36685797  0.01008989  0.96831362    -0.07600
C1494       C  0.37183369  0.97339261  0.97847949     0.13300
C1495       C  0.38602117  0.94805761  0.95748679    -0.24400
H1496       H  0.38154627  0.94525251  0.51925572     0.14500
H1497       H  0.34658571  0.05824156  0.98092871     0.14600
C1498       C  0.31095902  0.03141598  0.53760188    -0.24400
H1499       H  0.38979869  0.92157349  0.96958357     0.04800
H1500       H  0.41931543  0.97212825  0.94698934     0.08000
H1501       H  0.35977269  0.93071261  0.93961167     0.08000
H1502       H  0.33381309  0.05481247  0.55541870     0.08000
H1503       H  0.28068626  0.00213017  0.54810664     0.08000
H1504       H  0.29879107  0.05064269  0.52401635     0.04800
C1505       C  0.10621209  0.56651608  0.78843320    -0.21000
C1506       C  0.06689913  0.56608148  0.79847736    -0.07600
C1507       C  0.02969545  0.52437129  0.80910746     0.13300
C1508       C  0.03222737  0.48458294  0.80808091    -0.21100
C1509       C  0.07075306  0.48453500  0.79694035    -0.07600
C1510       C  0.10877740  0.52657162  0.78749789     0.13300
C1511       C  0.15252468  0.53029023  0.77663660    -0.24400
H1512       H  0.13502593  0.59830547  0.78078889     0.14500
H1513       H  0.00319702  0.45288619  0.81563497     0.14600
C1514       C  0.98735097  0.52104417  0.82244291    -0.24400
H1515       H  0.17924340  0.56614024  0.77213289     0.04800
H1516       H  0.14644637  0.51119518  0.75518762     0.08000
H1517       H  0.16606804  0.51678154  0.79410951     0.08000
H1518       H  0.96852372  0.52848711  0.80498566     0.08000
H1519       H  0.99712052  0.54524454  0.84159727     0.08000
H1520       H  0.96345862  0.48646617  0.83130036     0.04800
C1521       C  0.21968869  0.31790584  0.70950843    -0.21000
C1522       C  0.22202961  0.28044424  0.72060561    -0.07600
C1523       C  0.18770770  0.25052323  0.74115808     0.13300
C1524       C  0.15529469  0.26126144  0.75177739    -0.21100
C1525       C  0.15665081  0.30161691  0.74339150    -0.07600
C1526       C  0.18814749  0.32928187  0.72082141     0.13300
C1527       C  0.18967589  0.37144985  0.70873027    -0.24400
H1528       H  0.24485479  0.34052182  0.69333857     0.14500
H1529       H  0.13078953  0.23955894  0.76858728     0.14600
C1530       C  0.18601467  0.20852271  0.75369236    -0.24400
H1531       H  0.21336718  0.38617294  0.68932563     0.04800
H1532       H  0.20193836  0.39814572  0.72643083     0.08000
H1533       H  0.15524322  0.36294903  0.70081389     0.08000
H1534       H  0.21628322  0.21826139  0.76823446     0.08000
H1535       H  0.18464506  0.18630853  0.73490306     0.08000
H1536       H  0.15540725  0.18822446  0.76792427     0.04800
C1537       C  0.97379003  0.25842767  0.92984897    -0.21000
C1538       C  0.98069492  0.29560183  0.94745519    -0.07600
C1539       C  0.99431350  0.33782178  0.93328670     0.13300
C1540       C  0.00260684  0.34219240  0.90204485    -0.21100
C1541       C  0.99908876  0.30585660  0.88510717    -0.07600
C1542       C  0.98308454  0.26312871  0.89892148     0.13300
C1543       C  0.97430360  0.22206414  0.88087147    -0.24400
H1544       H  0.96209328  0.22569154  0.94048961     0.14500
H1545       H  0.01425972  0.37470934  0.89110108     0.14600
C1546       C  0.99995978  0.37816211  0.95082673    -0.24400
H1547       H  0.96017111  0.19091422  0.89500778     0.04800
H1548       H  0.00630248  0.22745845  0.87050270     0.08000
H1549       H  0.94903149  0.21621228  0.86299256     0.08000
H1550       H  0.02835459  0.38929830  0.96727561     0.08000
H1551       H  0.96785826  0.36891171  0.96291935     0.08000
H1552       H  0.00825008  0.40750342  0.93584860     0.04800
C1553       C  0.97375796  0.35527282  0.65914194    -0.21000
C1554       C  0.99636413  0.34396798  0.63761496    -0.07600
C1555       C  0.03658008  0.34406287  0.64574040     0.13300
C1556       C  0.05184351  0.35306089  0.67577741    -0.21100
C1557       C  0.02813794  0.36233559  0.69793864    -0.07600
C1558       C  0.98938767  0.36518212  0.68911077     0.13300
C1559       C  0.96434224  0.37904915  0.71068698    -0.24400
H1560       H  0.94340819  0.35597872  0.65244182     0.14500
H1561       H  0.08165710  0.35123152  0.68211972     0.14600
C1562       C  0.06233478  0.33263325  0.62317218    -0.24400
H1563       H  0.93788339  0.38343993  0.69894999     0.04800
H1564       H  0.98872278  0.41205871  0.72149012     0.08000
H1565       H  0.94665177  0.35247981  0.72816072     0.08000
H1566       H  0.07536784  0.35827675  0.60479671     0.08000
H1567       H  0.03947226  0.29828672  0.61351707     0.08000
H1568       H  0.09207408  0.33262142  0.63364368     0.04800
C1569       C  0.84724772  0.16463087  0.79914546    -0.21000
C1570       C  0.84809566  0.13533402  0.82135360    -0.07600
C1571       C  0.88974988  0.13597350  0.82595419     0.13300
C1572       C  0.92966521  0.16921886  0.81132637    -0.21100
C1573       C  0.93005680  0.20350822  0.79326572    -0.07600
C1574       C  0.88733109  0.19863935  0.78519742     0.13300
C1575       C  0.88322723  0.22976311  0.76275598    -0.24400
H1576       H  0.81535199  0.16320511  0.79404785     0.14500
H1577       H  0.96170606  0.17111058  0.81668640     0.14600
C1578       C  0.89345051  0.10341995  0.84721744    -0.24400
H1579       H  0.84707395  0.21744717  0.75668338     0.04800
H1580       H  0.90147564  0.23131098  0.74164311     0.08000
H1581       H  0.89726855  0.26436679  0.77239608     0.08000
H1582       H  0.86815403  0.06782321  0.84081296     0.08000
H1583       H  0.88761076  0.11016654  0.87080151     0.08000
H1584       H  0.92784000  0.10716479  0.84653729     0.04800
C1585       C  0.45833745  0.48903801  0.93732602    -0.21000
C1586       C  0.42611603  0.48556562  0.95859150    -0.07600
C1587       C  0.43647131  0.52455434  0.97626031     0.13300
C1588       C  0.47893933  0.56472971  0.97276713    -0.21100
C1589       C  0.51179204  0.56690032  0.95275808    -0.07600
C1590       C  0.50094859  0.52876333  0.93433973     0.13300
C1591       C  0.53376876  0.52961593  0.91109976    -0.24400
H1592       H  0.45073064  0.45996838  0.92330023     0.14500
H1593       H  0.48730834  0.59416290  0.98665148     0.14600
C1594       C  0.40400559  0.52435880  0.99944062    -0.24400
H1595       H  0.51807735  0.49818630  0.89712995     0.04800
H1596       H  0.56413895  0.53206345  0.92236645     0.08000
H1597       H  0.54452207  0.55901260  0.89566964     0.08000
H1598       H  0.40281282  0.49833611  0.51673253     0.08000
H1599       H  0.37149682  0.51663655  0.98835842     0.08000
H1600       H  0.41804168  0.55786442  0.01085854     0.04800
C1601       C  0.12228473  0.26094615  0.49980130    -0.21000
C1602       C  0.15788992  0.28809507  0.01366319    -0.07600
C1603       C  0.15324311  0.30898076  0.03997104     0.13300
C1604       C  0.11453367  0.30942530  0.54781309    -0.21100
C1605       C  0.07461062  0.27650984  0.53306867    -0.07600
C1606       C  0.07871944  0.25050852  0.50944946     0.13300
C1607       C  0.03798176  0.21376962  0.49261098    -0.24400
H1608       H  0.12525613  0.24286641  0.48062816     0.14500
H1609       H  0.11187195  0.32874415  0.56629429     0.14600
C1610       C  0.19412281  0.34497976  0.05711465    -0.24400
H1611       H  0.04800006  0.19697155  0.47527461     0.04800
H1612       H  0.01983100  0.22865536  0.48067573     0.08000
H1613       H  0.01463969  0.18705082  0.50862015     0.08000
H1614       H  0.21251371  0.37654028  0.04354875     0.08000
H1615       H  0.21747088  0.33217169  0.06278808     0.08000
H1616       H  0.18400700  0.35421905  0.07858397     0.04800
C1617       C  0.22671971  0.41564086  0.85485192    -0.21000
C1618       C  0.18073964  0.40369018  0.85636320    -0.07600
C1619       C  0.16076051  0.39950135  0.88500956     0.13300
C1620       C  0.18404063  0.39909321  0.91105004    -0.21100
C1621       C  0.22809000  0.40597792  0.90928227    -0.07600
C1622       C  0.25121348  0.41856549  0.88137081     0.13300
C1623       C  0.30102007  0.43322923  0.87963505    -0.24400
H1624       H  0.24262379  0.42015965  0.83297489     0.14500
H1625       H  0.16656726  0.39036778  0.93259540     0.14600
C1626       C  0.11386758  0.39263208  0.88882647    -0.24400
H1627       H  0.31356474  0.44016666  0.85600130     0.04800
H1628       H  0.30717710  0.40673617  0.88912122     0.08000
H1629       H  0.32116120  0.46485272  0.89303581     0.08000
H1630       H  0.09171718  0.35894049  0.89936996     0.08000
H1631       H  0.09865134  0.39477568  0.86713764     0.08000
H1632       H  0.11556525  0.41942964  0.90394184     0.04800
C1633       C  0.33175249  0.36503593  0.57982966    -0.21000
C1634       C  0.35419489  0.35755474  0.55589588    -0.07600
C1635       C  0.38463983  0.34158324  0.56270272     0.13300
C1636       C  0.39106997  0.33336142  0.59290475    -0.21100
C1637       C  0.36799566  0.34021943  0.61660461    -0.07600
C1638       C  0.33771987  0.35615515  0.60989428     0.13300
C1639       C  0.30936728  0.36149511  0.63385930    -0.24400
H1640       H  0.30834087  0.37701445  0.57501110     0.14500
H1641       H  0.41412348  0.32103320  0.59807490     0.14600
C1642       C  0.40993271  0.33188962  0.53866643    -0.24400
H1643       H  0.28576267  0.37177667  0.62413813     0.04800
H1644       H  0.33165730  0.38817525  0.65031698     0.08000
H1645       H  0.28824638  0.32852405  0.64554879     0.08000
H1646       H  0.43272998  0.36349209  0.52598634     0.08000
H1647       H  0.38528177  0.30516683  0.52305319     0.08000
H1648       H  0.43164621  0.31930555  0.54843642     0.04800
C1649       C  0.35235902  0.29563382  0.82801271    -0.21000
C1650       C  0.33563702  0.31272022  0.80577057    -0.07600
C1651       C  0.31050203  0.33362778  0.81436706     0.13300
C1652       C  0.30294835  0.33689094  0.84506006    -0.21100
C1653       C  0.32070895  0.32088371  0.86735592    -0.07600
C1654       C  0.34512694  0.29931976  0.85870516     0.13300
C1655       C  0.36081244  0.27719282  0.88144725    -0.24400
H1656       H  0.37053757  0.27858268  0.82128779     0.14500
H1657       H  0.28229635  0.35127851  0.85158756     0.14600
C1658       C  0.28940609  0.35042267  0.79149266    -0.24400
H1659       H  0.37337319  0.25680152  0.87021143     0.04800
H1660       H  0.33181609  0.25348187  0.89586400     0.08000
H1661       H  0.38879220  0.30340490  0.89562442     0.08000
H1662       H  0.26627069  0.32209221  0.77633378     0.08000
H1663       H  0.31646701  0.37857819  0.77803695     0.08000
H1664       H  0.26903832  0.36361788  0.80240208     0.04800
C1665       C  0.27455944  0.14310088  0.91958548    -0.21000
C1666       C  0.31437396  0.14421818  0.92955482    -0.07600
C1667       C  0.33930047  0.17377924  0.95379177     0.13300
C1668       C  0.32658452  0.20446061  0.96490795    -0.21100
C1669       C  0.28995405  0.20725726  0.95236441    -0.07600
C1670       C  0.26211900  0.17417223  0.93036059     0.13300
C1671       C  0.22064826  0.17248170  0.91655165    -0.24400
H1672       H  0.25467708  0.11989217  0.90155090     0.14500
H1673       H  0.34742868  0.22847336  0.98230337     0.14600
C1674       C  0.37972098  0.17384078  0.96801708    -0.24400
H1675       H  0.20191203  0.14282602  0.90120906     0.04800
H1676       H  0.23095711  0.20350461  0.90287561     0.08000
H1677       H  0.19670986  0.16940131  0.93462610     0.08000
H1678       H  0.40852614  0.18704637  0.95190858     0.08000
H1679       H  0.36991558  0.13881701  0.97509347     0.08000
H1680       H  0.39218192  0.19593810  0.98837932     0.04800
loop_ 
_geom_bond_atom_site_label_1 
_geom_bond_atom_site_label_2 
_geom_bond_distance 
_geom_bond_site_symmetry_2 
_ccdc_geom_bond_type 
O1           C16   1.260       .  A
O1           Al9   1.880       .  S
C2           O12   1.266       .  A
C2            O3   1.266       .  A
C2          C794   1.484       .  S
O3         Al845   1.914   1_554  S
O4            C6   1.260       .  A
O4           Al5   1.898       .  S
Al5          O13   1.903       .  S
Al5          O15   1.910       .  S
Al5         O843   1.918       .  S
Al5          O14   1.777       .  S
C6           O19   1.261       .  A
C6          C829   1.503       .  S
O7           C17   1.265       .  A
O7           Al9   1.913       .  S
O8           C21   1.265       .  A
O8          Al18   1.921       .  S
Al9          O22   1.924       .  S
Al9          O19   1.922       .  S
Al9          O14   1.779       .  S
O10          C17   1.261       .  A
O10         Al18   1.913       .  S
O11          C20   1.254       .  A
O11         Al18   1.897       .  S
O12        Al858   1.892   1_554  S
O13          C20   1.259       .  A
O14         Al18   1.780       .  S
O15          C16   1.263       .  A
C16         C813   1.467       .  S
C17         C762   1.486       .  S
Al18        O852   1.896       .  S
C20         C746   1.493       .  S
C21          O22   1.267       .  A
C21         C781   1.476       .  S
O23          C38   1.260       .  A
O23         Al31   1.878       .  S
C24          O34   1.269       .  A
C24          O25   1.266       .  A
C24         C717   1.497       .  S
O25         Al27   1.916       .  S
O26          C28   1.256       .  A
O26         Al27   1.896   1_655  S
Al27         O35   1.908       .  S
Al27         O37   1.910   1_455  S
Al27         O36   1.783       .  S
C28          O41   1.262   1_655  A
C28         C733   1.503       .  S
O29          C39   1.265       .  A
O29         Al31   1.922       .  S
O30          C43   1.267       .  A
O30         Al40   1.925       .  S
Al31         O44   1.929       .  S
Al31         O41   1.919       .  S
Al31         O36   1.787       .  S
O32          C39   1.261       .  A
O32         Al40   1.919       .  S
O33          C42   1.256       .  A
O33         Al40   1.911       .  S
O34         Al40   1.907       .  S
O35          C42   1.258       .  A
O36         Al40   1.787       .  S
O37          C38   1.261   1_655  A
C38         C701   1.466       .  S
C39         C685   1.496       .  S
C42         C669   1.503       .  S
C43          O44   1.268       .  A
C43         C778   1.483       .  S
O45          C60   1.255       .  A
O45         Al53   1.858       .  S
C46          O56   1.267       .  A
C46          O47   1.274       .  A
C46         C653   1.478       .  S
O47         Al49   1.941       .  S
O48          C50   1.255       .  A
O48         Al49   1.888   1_565  S
Al49         O57   1.887       .  S
Al49         O59   1.938       .  S
Al49         O58   1.772       .  S
C50          O63   1.263   1_565  A
C50         C618   1.510       .  S
O51          C61   1.268       .  A
O51         Al53   1.922       .  S
O52          C65   1.266       .  A
O52         Al62   1.917       .  S
Al53         O66   1.931       .  S
Al53         O63   1.941       .  S
Al53         O58   1.780       .  S
O54          C61   1.265       .  A
O54         Al62   1.929       .  S
O55          C64   1.256       .  A
O55         Al62   1.916       .  S
O56         Al62   1.874       .  S
O57          C64   1.250       .  A
O58         Al62   1.783       .  S
O59          C60   1.271       .  A
C60         C634   1.481       .  S
C61         C826   1.498       .  S
C64         C586   1.497       .  S
C65          O66   1.269       .  A
C65         C602   1.473       .  S
O67          C82   1.263       .  A
O67         Al75   1.889       .  S
C68          O78   1.268       .  A
C68          O69   1.267       .  A
C68         C797   1.486       .  S
O69         Al71   1.916       .  S
O70          C72   1.261       .  A
O70         Al71   1.910       .  S
Al71         O79   1.907       .  S
Al71         O81   1.889       .  S
Al71         O80   1.777       .  S
C72          O85   1.257       .  A
C72         C682   1.503       .  S
O73          C83   1.266       .  A
O73         Al75   1.919       .  S
O74          C87   1.265       .  A
O74         Al84   1.918       .  S
Al75         O88   1.920       .  S
Al75         O85   1.906       .  S
Al75         O80   1.784       .  S
O76          C83   1.263       .  A
O76         Al84   1.914       .  S
O77          C86   1.254       .  A
O77         Al84   1.898       .  S
O78         Al84   1.888       .  S
O79          C86   1.256       .  A
O80         Al84   1.781       .  S
O81          C82   1.261       .  A
C82         C810   1.472       .  S
C83         C573   1.489       .  S
C86         C557   1.480       .  S
C87          O88   1.264       .  A
C87         C605   1.472       .  S
O89         C104   1.266       .  A
O89        Al937   1.910   1_554  S
C90         O100   1.269       .  A
C90          O91   1.264       .  A
C90         C474   1.470       .  S
O91         Al93   1.874       .  S
O92          C94   1.258       .  A
O92         Al93   1.901       .  S
Al93        O101   1.893       .  S
Al93        O943   1.900       .  S
Al93        O102   1.786       .  S
C94         O107   1.261       .  A
C94         C538   1.484       .  S
O95         C105   1.261       .  A
O95         Al97   1.917       .  S
O96         C109   1.263       .  A
O96        Al106   1.924       .  S
Al97        O107   1.918       .  S
Al97        O929   1.906       .  S
Al97        O950   1.878       .  S
Al97        O102   1.783       .  S
O98         C105   1.258       .  A
O98        Al106   1.886       .  S
O99         C108   1.256       .  A
O99        Al106   1.905       .  S
O100       Al106   1.926       .  S
O101        C108   1.253       .  A
O102       Al106   1.787       .  S
O103        C104   1.265   1_556  A
O103       Al933   1.907       .  S
C104        C490   1.465       .  S
C105        C509   1.499       .  S
C108        C749   1.478       .  S
C109        O950   1.256       .  A
C109       C1365   1.473       .  S
O110        C949   1.254   1_554  A
O110       Al937   1.866   1_554  S
O111        C126   1.261       .  A
O111       Al959   1.876       .  S
C112        O122   1.267       .  A
C112        O113   1.271       .  A
C112        C714   1.482       .  S
O113       Al115   1.931       .  S
O114        C116   1.256       .  A
O114       Al115   1.888   1_455  S
Al115       O123   1.887       .  S
Al115       O965   1.925   1_554  S
Al115       O124   1.770       .  S
C116        O129   1.256   1_455  A
C116        C765   1.493       .  S
O117        C127   1.263       .  A
O117       Al119   1.904       .  S
O118        C131   1.264       .  A
O118       Al128   1.915       .  S
Al119       O132   1.913       .  S
Al119       O129   1.906       .  S
Al119       O951   1.877   1_554  S
Al119       O124   1.782       .  S
O120        C127   1.268       .  A
O120       Al128   1.927       .  S
O121        C130   1.256       .  A
O121       Al128   1.913       .  S
O122       Al128   1.888       .  S
O123        C130   1.252       .  A
O124       Al128   1.785       .  S
O125        C126   1.264       .  A
O125       Al955   1.914       .  S
C126        C698   1.472       .  S
C127        C461   1.490       .  S
C130        C429   1.489       .  S
C131        O132   1.264       .  A
C131       C1282   1.464   1_554  S
O133        C148   1.269       .  A
O133       Al141   1.911       .  S
C134        O144   1.275       .  A
C134        O135   1.270   1_545  A
C134        C394   1.486   1_545  S
O135       Al137   1.887       .  S
O136        C138   1.254       .  A
O136       Al137   1.893       .  S
Al137       O145   1.897   1_565  S
Al137       O147   1.909   1_565  S
Al137       O146   1.787   1_565  S
C138        O151   1.260   1_565  A
C138        C506   1.478       .  S
O139        C149   1.260       .  A
O139       Al141   1.915       .  S
O140        C153   1.263       .  A
O140       Al150   1.926       .  S
Al141       O154   1.863       .  S
Al141       O151   1.917       .  S
Al141       O146   1.789       .  S
O142        C149   1.257       .  A
O142       Al150   1.888       .  S
O143        C152   1.250       .  A
O143       Al150   1.902       .  S
O144       Al150   1.943       .  S
O145        C152   1.251       .  A
O146       Al150   1.788       .  S
O147        C148   1.270       .  A
C148        C413   1.477       .  S
C149        C730   1.503       .  S
C152        C589   1.479       .  S
C153        O154   1.254       .  A
C153        C445   1.469       .  S
O155        C170   1.260       .  A
O155       Al163   1.886       .  S
C156        O166   1.262       .  A
C156        O157   1.269       .  A
C156        C397   1.491       .  S
O157       Al159   1.930       .  S
O158        C160   1.253       .  A
O158       Al159   1.887   1_545  S
Al159       O167   1.879       .  S
Al159       O169   1.940       .  S
Al159       O168   1.772       .  S
C160        O173   1.261   1_545  A
C160        C458   1.492       .  S
O161        C171   1.266       .  A
O161       Al163   1.907       .  S
O162        C175   1.263       .  A
O162       Al172   1.918       .  S
Al163       O176   1.904       .  S
Al163       O173   1.920       .  S
Al163       O168   1.778       .  S
O164        C171   1.268       .  A
O164       Al172   1.924       .  S
O165        C174   1.258       .  A
O165       Al172   1.913       .  S
O166       Al172   1.887       .  S
O167        C174   1.256       .  A
O168       Al172   1.779       .  S
O169        C170   1.269       .  A
C170        C410   1.471       .  S
C171        C381   1.485       .  S
C174        C365   1.490       .  S
C175        O176   1.261       .  A
C175        C522   1.465       .  S
O177        C192   1.269       .  A
O177       Al185   1.910       .  S
C178        O188   1.274       .  A
C178        O179   1.265       .  A
C178        C314   1.474       .  S
O179       Al181   1.875       .  S
O180        C182   1.257       .  A
O180       Al181   1.900   1_655  S
Al181       O189   1.905       .  S
Al181       O191   1.902       .  S
Al181       O190   1.791       .  S
C182        O195   1.259   1_655  A
C182        C346   1.475       .  S
O183        C193   1.262       .  A
O183       Al185   1.924       .  S
O184        C197   1.263       .  A
O184       Al194   1.927       .  S
Al185       O198   1.868       .  S
Al185       O195   1.913       .  S
Al185       O190   1.786       .  S
O186        C193   1.258       .  A
O186       Al194   1.904       .  S
O187        C196   1.256       .  A
O187       Al194   1.913       .  S
O188       Al194   1.922       .  S
O189        C196   1.252       .  A
O190       Al194   1.785       .  S
O191        C192   1.267       .  A
C192        C333   1.476       .  S
C193        C621   1.511       .  S
C196        C666   1.490       .  S
C197        O198   1.255       .  A
C197        C298   1.470       .  S
O199        C214   1.269       .  A
O199       Al207   1.909       .  S
C200        O210   1.273       .  A
C200        O201   1.263       .  A
C200        C650   1.484       .  S
O201       Al203   1.870       .  S
O202        C204   1.257       .  A
O202       Al203   1.899   1_545  S
Al203       O211   1.889       .  S
Al203       O213   1.908       .  S
Al203       O212   1.787       .  S
C204        O217   1.261   1_545  A
C204        C570   1.483       .  S
O205        C215   1.263       .  A
O205       Al207   1.922       .  S
O206        C219   1.264       .  A
O206       Al216   1.933       .  S
Al207       O220   1.867       .  S
Al207       O217   1.918       .  S
Al207       O212   1.785       .  S
O208        C215   1.252       .  A
O208       Al216   1.873       .  S
O209        C218   1.252       .  A
O209       Al216   1.894       .  S
O210       Al216   1.942       .  S
O211        C218   1.251       .  A
O212       Al216   1.789       .  S
O213        C214   1.266       .  A
C214        C637   1.475   1_565  S
C215        C282   1.497       .  S
C218        C362   1.478       .  S
C219        O220   1.256       .  A
C219        C301   1.476       .  S
O221        C236   1.261       .  A
O221       Al229   1.870       .  S
C222        O232   1.262       .  A
C222        O223   1.267       .  A
C222        C477   1.466       .  S
O223       Al225   1.917       .  S
O224        C226   1.254       .  A
O224       Al225   1.894       .  S
Al225       O233   1.882       .  S
Al225       O235   1.929       .  S
Al225       O234   1.777       .  S
C226        O239   1.258       .  A
C226        C378   1.494       .  S
O227        C237   1.264       .  A
O227       Al229   1.905       .  S
O228        C241   1.263       .  A
O228       Al238   1.922       .  S
Al229       O242   1.898       .  S
Al229       O239   1.906       .  S
Al229       O234   1.780       .  S
O230        C237   1.269       .  A
O230       Al238   1.930       .  S
O231        C240   1.257       .  A
O231       Al238   1.917       .  S
O232       Al238   1.877       .  S
O233        C240   1.253       .  A
O234       Al238   1.784       .  S
O235        C236   1.267       .  A
C236        C493   1.489       .  S
C237        C349   1.484       .  S
C240        C554   1.474       .  S
C241        O242   1.260       .  A
C241        C269   1.466       .  S
O243        C258   1.269       .  A
O243       Al251   1.913       .  S
C244        O254   1.279       .  A
C244        O245   1.265   1_655  A
C244        C317   1.483       .  S
O245      Al1087   1.860       .  S
O246        C248   1.255       .  A
O246       Al247   1.895       .  S
Al247       O255   1.879   1_455  S
Al247       O257   1.900   1_455  S
Al247      O1085   1.867       .  S
Al247       O256   1.787   1_455  S
C248        O261   1.257       .  A
C248        C285   1.483       .  S
O249        C259   1.258       .  A
O249       Al251   1.911       .  S
O250        C263   1.264       .  A
O250       Al260   1.928       .  S
Al251       O264   1.861       .  S
Al251       O261   1.914   1_655  S
Al251       O256   1.788       .  S
O252        C259   1.253       .  A
O252       Al260   1.887       .  S
O253        C262   1.250       .  A
O253       Al260   1.906       .  S
O254      Al1100   1.936       .  S
O255        C262   1.248       .  A
O256       Al260   1.790       .  S
O257        C258   1.266       .  A
C258        C330   1.460   1_655  S
C259        C541   1.501   1_554  S
Al260      O1094   1.938   1_554  S
C262        C426   1.493       .  S
C263        O264   1.256       .  A
C263        C266   1.475       .  S
C265        C266   1.404       .  A
C265        C270   1.397       .  A
C265        H272   1.084       .  S
C266        C267   1.410       .  A
C267        C268   1.410       .  A
C267        C274   1.504       .  S
C268        C269   1.407       .  A
C268        H273   1.084       .  S
C269        C270   1.408       .  A
C270        C271   1.509       .  S
C271        H275   1.108       .  S
C271        H276   1.110       .  S
C271        H277   1.110       .  S
C274        H278   1.110       .  S
C274        H279   1.108       .  S
C274        H280   1.111       .  S
C281        C282   1.409       .  A
C281        C286   1.409       .  A
C281        H288   1.084       .  S
C282        C283   1.425       .  A
C283        C284   1.402       .  A
C283        C290   1.511       .  S
C284        C285   1.401       .  A
C284        H289   1.085       .  S
C285        C286   1.414       .  A
C286        C287   1.507       .  S
C287        H291   1.111       .  S
C287        H292   1.109       .  S
C287        H293   1.110       .  S
C290        H294   1.110       .  S
C290        H295   1.111       .  S
C290        H296   1.111       .  S
C297        C298   1.395       .  A
C297        C302   1.399       .  A
C297        H304   1.085       .  S
C298        C299   1.414       .  A
C299        C300   1.407       .  A
C299        C306   1.505       .  S
C300        C301   1.401       .  A
C300        H305   1.084       .  S
C301        C302   1.418       .  A
C302        C303   1.504       .  S
C303        H307   1.110       .  S
C303        H308   1.110       .  S
C303        H309   1.106       .  S
C306        H310   1.104       .  S
C306        H311   1.110       .  S
C306        H312   1.111       .  S
C313        C314   1.400       .  A
C313        C318   1.396       .  A
C313        H320   1.084       .  S
C314        C315   1.415   1_455  A
C315        C316   1.400       .  A
C315        C322   1.508       .  S
C316        C317   1.406       .  A
C316        H321   1.083       .  S
C317        C318   1.423   1_655  A
C318        C319   1.512       .  S
C319        H323   1.111       .  S
C319        H324   1.110       .  S
C319        H325   1.110       .  S
C322        H326   1.110       .  S
C322        H327   1.107       .  S
C322        H328   1.111       .  S
C329        C330   1.403   1_655  A
C329        C334   1.408       .  A
C329        H336   1.084       .  S
C330        C331   1.405       .  A
C331        C332   1.389       .  A
C331        C338   1.509       .  S
C332        C333   1.405       .  A
C332        H337   1.084       .  S
C333        C334   1.416   1_455  A
C334        C335   1.506       .  S
C335        H339   1.111       .  S
C335        H340   1.110       .  S
C335        H341   1.110       .  S
C338        H342   1.105       .  S
C338        H343   1.110       .  S
C338        H344   1.111       .  S
C345        C346   1.403       .  A
C345        C350   1.408       .  A
C345        H352   1.084       .  S
C346        C347   1.411       .  A
C347        C348   1.401       .  A
C347        C354   1.505       .  S
C348        C349   1.404       .  A
C348        H353   1.085       .  S
C349        C350   1.418       .  A
C350        C351   1.507       .  S
C351        H355   1.111       .  S
C351        H356   1.110       .  S
C351        H357   1.111       .  S
C354        H358   1.109       .  S
C354        H359   1.110       .  S
C354        H360   1.110       .  S
C361        C362   1.402       .  A
C361        C366   1.405       .  A
C361        H368   1.084       .  S
C362        C363   1.415       .  A
C363        C364   1.398       .  A
C363        C370   1.511       .  S
C364        C365   1.407       .  A
C364        H369   1.084       .  S
C365        C366   1.421       .  A
C366        C367   1.508       .  S
C367        H371   1.111       .  S
C367        H372   1.110       .  S
C367        H373   1.110       .  S
C370        H374   1.110   1_565  S
C370        H375   1.111       .  S
C370        H376   1.111   1_565  S
C377        C378   1.409       .  A
C377        C382   1.405       .  A
C377        H384   1.084       .  S
C378        C379   1.420       .  A
C379        C380   1.405       .  A
C379        C386   1.509       .  S
C380        C381   1.404       .  A
C380        H385   1.084       .  S
C381        C382   1.414       .  A
C382        C383   1.508       .  S
C383        H387   1.111       .  S
C383        H388   1.110       .  S
C383        H389   1.110       .  S
C386        H390   1.110       .  S
C386        H391   1.109       .  S
C386        H392   1.111       .  S
C393        C394   1.403       .  A
C393        C398   1.402       .  A
C393        H400   1.084       .  S
C394        C395   1.416   1_565  A
C395        C396   1.408       .  A
C395        C402   1.508       .  S
C396        C397   1.407   1_545  A
C396        H401   1.084       .  S
C397        C398   1.420       .  A
C398        C399   1.509       .  S
C399        H403   1.111       .  S
C399        H404   1.111       .  S
C399        H405   1.110       .  S
C402        H406   1.109       .  S
C402        H407   1.111       .  S
C402        H408   1.111       .  S
C409        C410   1.402       .  A
C409       C1254   1.407   1_554  A
C409        H416   1.084       .  S
C410        C411   1.409   1_565  A
C411       C1252   1.401   1_554  A
C411        C418   1.506       .  S
C412        C413   1.407       .  A
C412       C1251   1.398       .  A
C412        H417   1.084       .  S
C413        C414   1.413   1_545  A
C414       C1249   1.405       .  A
C414        C415   1.506       .  S
C415        H419   1.111       .  S
C415        H420   1.111       .  S
C415        H421   1.110       .  S
C418        H422   1.109       .  S
C418        H423   1.110       .  S
C418        H424   1.111       .  S
C425        C426   1.406       .  A
C425        C430   1.399       .  A
C425        H432   1.084   1_655  S
C426        C427   1.418       .  A
C427        C428   1.410       .  A
C427        C434   1.507       .  S
C428        C429   1.408       .  A
C428        H433   1.084       .  S
C429        C430   1.417       .  A
C430        C431   1.510   1_655  S
C431        H435   1.111       .  S
C431        H436   1.107       .  S
C431        H437   1.110       .  S
C434        H438   1.110       .  S
C434        H439   1.111       .  S
C434        H440   1.111       .  S
C441        C442   1.406       .  A
C441        C446   1.405       .  A
C441        H448   1.084       .  S
C442        C971   1.468       .  S
C442        C443   1.407       .  A
C443        C444   1.403       .  A
C443       C1290   1.506       .  S
C444        C445   1.405       .  A
C444        H449   1.085       .  S
C445        C446   1.408       .  A
C446        C447   1.507       .  S
C447        H451   1.111       .  S
C447        H452   1.110       .  S
C447        H453   1.111       .  S
C450       C1283   1.507   1_554  S
C450        H454   1.110       .  S
C450        H455   1.110       .  S
C450       H1296   1.111       .  S
H456       C1290   1.111       .  S
C457        C458   1.407       .  A
C457        C462   1.406       .  A
C457        H464   1.084       .  S
C458        C459   1.421       .  A
C459        C460   1.403       .  A
C459        C466   1.510       .  S
C460        C461   1.405       .  A
C460        H465   1.084       .  S
C461        C462   1.417       .  A
C462        C463   1.507       .  S
C463        H467   1.111       .  S
C463        H468   1.110       .  S
C463        H469   1.110       .  S
C466        H470   1.110       .  S
C466        H471   1.109       .  S
C466        H472   1.111       .  S
C473        C474   1.403       .  A
C473        C478   1.398       .  A
C473        H480   1.085       .  S
C474        C475   1.414       .  A
C475        C476   1.401       .  A
C475        C482   1.507       .  S
C476        C477   1.401       .  A
C476        H481   1.084       .  S
C477        C478   1.411       .  A
C478        C479   1.508       .  S
C479        H483   1.111       .  S
C479        H484   1.109       .  S
C479        H485   1.110       .  S
C482        H486   1.110       .  S
C482        H487   1.109       .  S
C482        H488   1.111       .  S
C489        C490   1.400       .  A
C489        C494   1.408       .  A
C489        H496   1.084       .  S
C490        C491   1.405       .  A
C491        C492   1.394       .  A
C491        C498   1.506       .  S
C492        C493   1.409       .  A
C492        H497   1.084       .  S
C493        C494   1.422       .  A
C494        C495   1.507       .  S
C495        H499   1.111       .  S
C495        H500   1.110       .  S
C495        H501   1.110       .  S
C498        H502   1.104       .  S
C498        H503   1.110       .  S
C498        H504   1.109       .  S
C505        C506   1.402       .  A
C505        C510   1.410       .  A
C505        H512   1.084       .  S
C506        C507   1.411       .  A
C507        C508   1.403       .  A
C507        C514   1.509       .  S
C508        C509   1.410       .  A
C508        H513   1.083       .  S
C509        C510   1.423       .  A
C510        C511   1.508       .  S
C511        H515   1.110       .  S
C511        H516   1.110       .  S
C511        H517   1.111       .  S
C514        H518   1.110       .  S
C514        H519   1.109       .  S
C514        H520   1.111       .  S
C521        C522   1.404       .  A
C521        C526   1.406       .  A
C521        H528   1.084       .  S
C522        C523   1.408       .  A
C523        C524   1.400       .  A
C523        C530   1.507       .  S
C524        C525   1.404       .  A
C524        H529   1.084       .  S
C525        C949   1.472   1_554  S
C525        C526   1.411       .  A
C526       C1367   1.506   1_554  S
C527       C1366   1.507       .  S
C527        H532   1.110       .  S
C527        H533   1.111       .  S
C527       H1371   1.110       .  S
C530        H534   1.110       .  S
C530        H535   1.111       .  S
C530        H536   1.109       .  S
H531       C1367   1.110       .  S
C537        C538   1.403       .  A
C537       C1382   1.405       .  A
C537        H544   1.084       .  S
C538        C539   1.414       .  A
C539        C540   1.407       .  A
C539        C546   1.507       .  S
C540       C1381   1.408       .  A
C540        H545   1.083       .  S
C541        C542   1.423       .  A
C541       C1380   1.410   1_556  A
C542       C1377   1.406       .  A
C542        C543   1.510       .  S
C543        H547   1.111       .  S
C543        H548   1.109       .  S
C543        H549   1.111       .  S
C546        H550   1.109       .  S
C546        H551   1.110       .  S
C546        H552   1.111       .  S
C553        C554   1.404       .  A
C553        C558   1.407       .  A
C553        H560   1.084       .  S
C554        C555   1.410       .  A
C555        C556   1.402       .  A
C555        C562   1.508       .  S
C556        C557   1.405       .  A
C556        H561   1.084       .  S
C557        C558   1.414       .  A
C558        C559   1.507       .  S
C559        H563   1.111       .  S
C559        H564   1.111       .  S
C559        H565   1.110       .  S
C562        H566   1.111       .  S
C562        H567   1.110       .  S
C562        H568   1.111       .  S
C569        C570   1.403       .  A
C569        C574   1.404       .  A
C569        H576   1.084       .  S
C570        C571   1.416       .  A
C571        C572   1.409       .  A
C571        C578   1.506       .  S
C572        C573   1.405       .  A
C572        H577   1.084       .  S
C573        C574   1.419       .  A
C574        C575   1.510       .  S
C575        H579   1.111       .  S
C575        H580   1.108       .  S
C575        H581   1.110       .  S
C578        H582   1.108       .  S
C578        H583   1.110       .  S
C578        H584   1.111       .  S
C585        C586   1.412       .  A
C585        C590   1.408       .  A
C585        H592   1.083       .  S
C586        C587   1.423       .  A
C587        C588   1.403       .  A
C587        C594   1.510       .  S
C588        C589   1.401       .  A
C588        H593   1.085       .  S
C589        C590   1.410       .  A
C590        C591   1.507       .  S
C591        H595   1.111       .  S
C591        H596   1.110       .  S
C591        H597   1.111       .  S
C594        H598   1.110       .  S
C594        H599   1.110   1_545  S
C594        H600   1.111   1_545  S
C601        C602   1.403       .  A
C601        C606   1.403       .  A
C601        H608   1.084       .  S
C602        C603   1.408       .  A
C603        C604   1.407       .  A
C603        C610   1.504       .  S
C604        C605   1.405       .  A
C604        H609   1.085       .  S
C605        C606   1.410       .  A
C606        C607   1.507       .  S
C607        H611   1.111       .  S
C607        H612   1.110       .  S
C607        H613   1.110       .  S
C610        H614   1.110       .  S
C610        H615   1.111       .  S
C610        H616   1.107       .  S
C617        C618   1.409       .  A
C617        C622   1.410       .  A
C617        H624   1.084       .  S
C618        C619   1.421       .  A
C619        C620   1.415       .  A
C619        C626   1.505       .  S
C620        C621   1.410       .  A
C620        H625   1.084       .  S
C621        C622   1.423       .  A
C622        C623   1.509       .  S
C623        H627   1.111       .  S
C623        H628   1.110       .  S
C623        H629   1.110       .  S
C626        H630   1.105       .  S
C626        H631   1.110       .  S
C626        H632   1.111       .  S
C633        C634   1.407       .  A
C633        C638   1.408       .  A
C633        H640   1.084       .  S
C634        C635   1.421       .  A
C635        C636   1.393       .  A
C635        C642   1.511       .  S
C636        C637   1.399       .  A
C636        H641   1.085       .  S
C637        C638   1.413       .  A
C638        C639   1.507   1_545  S
C639        H643   1.111       .  S
C639        H644   1.110   1_565  S
C639        H645   1.106       .  S
C642        H646   1.110       .  S
C642        H647   1.106       .  S
C642        H648   1.111       .  S
C649        C650   1.408       .  A
C649       C1494   1.411   1_554  A
C649        H656   1.084       .  S
C650        C651   1.417   1_565  A
C651       C1492   1.395   1_554  A
C651        C658   1.512       .  S
C652        C653   1.402       .  A
C652       C1491   1.397       .  A
C652        H657   1.085       .  S
C653        C654   1.414   1_545  A
C654       C1489   1.407       .  A
C654        C655   1.506       .  S
C655        H659   1.111       .  S
C655        H660   1.111       .  S
C655        H661   1.110       .  S
C658        H662   1.109       .  S
C658        H663   1.111       .  S
C658        H664   1.111       .  S
C665        C666   1.400       .  A
C665        C670   1.408       .  A
C665        H672   1.084       .  S
C666        C667   1.418       .  A
C667        C668   1.408       .  A
C667        C674   1.509       .  S
C668        C669   1.409       .  A
C668        H673   1.084       .  S
C669        C670   1.425       .  A
C670        C671   1.508       .  S
C671        H675   1.111       .  S
C671        H676   1.110       .  S
C671        H677   1.110       .  S
C674        H678   1.109   1_455  S
C674        H679   1.111       .  S
C674        H680   1.111   1_455  S
C681        C682   1.406       .  A
C681        C686   1.409       .  A
C681        H688   1.084       .  S
C682        C683   1.427       .  A
C683        C684   1.409       .  A
C683        C690   1.509       .  S
C684        C685   1.402       .  A
C684        H689   1.084       .  S
C685        C686   1.419       .  A
C686        C687   1.507       .  S
C687        H691   1.111       .  S
C687        H692   1.108       .  S
C687        H693   1.109       .  S
C690        H694   1.110       .  S
C690        H695   1.110       .  S
C690        H696   1.111       .  S
C697        C698   1.401       .  A
C697        C702   1.393       .  A
C697        H704   1.084       .  S
C698        C699   1.416       .  A
C699        C700   1.406   1_655  A
C699        C706   1.507   1_655  S
C700        C701   1.401       .  A
C700        H705   1.084       .  S
C701        C702   1.409   1_455  A
C702        C703   1.504       .  S
C703        H707   1.111       .  S
C703        H708   1.109   1_655  S
C703        H709   1.106       .  S
C706        H710   1.109       .  S
C706        H711   1.111   1_455  S
C706        H712   1.111       .  S
C713        C714   1.400       .  A
C713        C718   1.404       .  A
C713        H720   1.084       .  S
C714        C715   1.414   1_655  A
C715        C716   1.404       .  A
C715        C722   1.508       .  S
C716        C717   1.408       .  A
C716        H721   1.082       .  S
C717        C718   1.425   1_455  A
C718        C719   1.509       .  S
C719        H723   1.111       .  S
C719        H724   1.110       .  S
C719        H725   1.108       .  S
C722        H726   1.109       .  S
C722        H727   1.110       .  S
C722        H728   1.111       .  S
C729        C730   1.408       .  A
C729        C734   1.406       .  A
C729        H736   1.084       .  S
C730        C731   1.420       .  A
C731        C732   1.411       .  A
C731        C738   1.507       .  S
C732        C733   1.410       .  A
C732        H737   1.084       .  S
C733        C734   1.421       .  A
C734        C735   1.509       .  S
C735        H739   1.111       .  S
C735        H740   1.110       .  S
C735        H741   1.109       .  S
C738        H742   1.110       .  S
C738        H743   1.110       .  S
C738        H744   1.111       .  S
C745        C746   1.406       .  A
C745        C750   1.402       .  A
C745        H752   1.084       .  S
C746        C747   1.426       .  A
C747        C748   1.405       .  A
C747        C754   1.509       .  S
C748        C749   1.398       .  A
C748        H753   1.084       .  S
C749        C750   1.416       .  A
C750        C751   1.510       .  S
C751        H755   1.111       .  S
C751        H756   1.109       .  S
C751        H757   1.111       .  S
C754        H759   1.110       .  S
C754        H760   1.111       .  S
C754       H1598   1.110       .  S
H758       C1594   1.110   1_554  S
C761        C766   1.406       .  A
C761       C1602   1.403       .  A
C761        H768   1.084   1_554  S
C762        C763   1.418       .  A
C762       C1601   1.401       .  A
C763       C1604   1.405       .  A
C763        C770   1.509       .  S
C764        C765   1.407       .  A
C764       C1603   1.405       .  A
C764        H769   1.083       .  S
C765        C766   1.422       .  A
C766        C767   1.509   1_554  S
C767        H771   1.111       .  S
C767        H772   1.110       .  S
C767        H773   1.110   1_556  S
C770        H774   1.109       .  S
C770        H775   1.110       .  S
C770        H776   1.111       .  S
C777        C778   1.406       .  A
C777        C782   1.413       .  A
C777        H784   1.084       .  S
C778        C779   1.415       .  A
C779        C780   1.401       .  A
C779        C786   1.501       .  S
C780        C781   1.397       .  A
C780        H785   1.085       .  S
C781        C782   1.412       .  A
C782        C783   1.505       .  S
C783        H787   1.111       .  S
C783        H788   1.108       .  S
C783        H789   1.110       .  S
C786        H790   1.109       .  S
C786        H791   1.109       .  S
C786        H792   1.110       .  S
C793        C794   1.404       .  A
C793        C798   1.403       .  A
C793        H800   1.084       .  S
C794        C795   1.419       .  A
C795        C796   1.400       .  A
C795        C802   1.509       .  S
C796        C797   1.404       .  A
C796        H801   1.084       .  S
C797        C798   1.420       .  A
C798        C799   1.509       .  S
C799        H803   1.111       .  S
C799        H804   1.110       .  S
C799        H805   1.110       .  S
C802        H806   1.110       .  S
C802        H807   1.109       .  S
C802        H808   1.111       .  S
C809        C810   1.404       .  A
C809        C814   1.399       .  A
C809        H816   1.084       .  S
C810        C811   1.419       .  A
C811        C812   1.395       .  A
C811        C818   1.511       .  S
C812        C813   1.397       .  A
C812        H817   1.079       .  S
C813        C814   1.411       .  A
C814        C815   1.505       .  S
C815        H819   1.107       .  S
C815        H820   1.106       .  S
C815        H821   1.110       .  S
C818        H822   1.110       .  S
C818        H823   1.110       .  S
C818        H824   1.111       .  S
C825        C826   1.405       .  A
C825        C830   1.411       .  A
C825        H832   1.084       .  S
C826        C827   1.421       .  A
C827        C828   1.406       .  A
C827        C834   1.510       .  S
C828        C829   1.407       .  A
C828        H833   1.084       .  S
C829        C830   1.424       .  A
C830        C831   1.508       .  S
C831        H835   1.111       .  S
C831        H836   1.110       .  S
C831        H837   1.110       .  S
C834        H838   1.109       .  S
C834        H839   1.111       .  S
C834        H840   1.111       .  S
O841        C856   1.261       .  A
O841       Al849   1.885       .  S
C842        O852   1.268       .  A
C842        O843   1.266       .  A
C842       C1634   1.492       .  S
O844        C846   1.260       .  A
O844       Al845   1.902       .  S
Al845       O853   1.892       .  S
Al845       O855   1.902       .  S
Al845       O854   1.774       .  S
C846        O859   1.259       .  A
C846       C1669   1.503       .  S
O847        C857   1.265       .  A
O847       Al849   1.908       .  S
O848        C861   1.263       .  A
O848       Al858   1.916       .  S
Al849       O862   1.920       .  S
Al849       O859   1.917       .  S
Al849       O854   1.782       .  S
O850        C857   1.264       .  A
O850       Al858   1.922       .  S
O851        C860   1.256       .  A
O851       Al858   1.910       .  S
O853        C860   1.257       .  A
O854       Al858   1.783       .  S
O855        C856   1.263       .  A
C856       C1653   1.472       .  S
C857       C1602   1.486   1_556  S
C860       C1586   1.495       .  S
C861        O862   1.265       .  A
C861       C1621   1.472       .  S
O863        C878   1.260       .  A
O863       Al871   1.881       .  S
C864        O874   1.269       .  A
C864        O865   1.269       .  A
C864       C1557   1.488       .  S
O865       Al867   1.918       .  S
O866        C868   1.258       .  A
O866       Al867   1.901   1_655  S
Al867       O875   1.905       .  S
Al867       O877   1.911   1_455  S
Al867       O876   1.782       .  S
C868        O881   1.261   1_655  A
C868       C1573   1.505       .  S
O869        C879   1.263       .  A
O869       Al871   1.923       .  S
O870        C883   1.266       .  A
O870       Al880   1.914       .  S
Al871       O884   1.932       .  S
Al871       O881   1.914       .  S
Al871       O876   1.784       .  S
O872        C879   1.257       .  A
O872       Al880   1.908       .  S
O873        C882   1.251       .  A
O873       Al880   1.898       .  S
O874       Al880   1.898       .  S
O875        C882   1.257       .  A
O876       Al880   1.793       .  S
O877        C878   1.262   1_655  A
C878       C1541   1.470   1_455  S
C879       C1525   1.495       .  S
C882       C1509   1.495       .  S
C883        O884   1.270       .  A
C883       C1618   1.478       .  S
O885        C900   1.254       .  A
O885       Al893   1.852       .  S
C886        O896   1.267       .  A
C886        O887   1.273       .  A
C886       C1493   1.486       .  S
O887       Al889   1.943       .  S
O888        C890   1.255       .  A
O888       Al889   1.885   1_565  S
Al889       O897   1.881       .  S
Al889       O899   1.937       .  S
Al889       O898   1.773       .  S
C890        O903   1.262   1_565  A
C890       C1458   1.507       .  S
O891        C901   1.268       .  A
O891       Al893   1.915       .  S
O892        C905   1.265       .  A
O892       Al902   1.919       .  S
Al893       O906   1.931       .  S
Al893       O903   1.939       .  S
Al893       O898   1.778       .  S
O894        C901   1.268       .  A
O894       Al902   1.938       .  S
O895        C904   1.257       .  A
O895       Al902   1.918       .  S
O896       Al902   1.872       .  S
O897        C904   1.249       .  A
O898       Al902   1.781       .  S
O899        C900   1.270       .  A
C900       C1474   1.477       .  S
C901       C1666   1.497       .  S
C904       C1426   1.491       .  S
C905        O906   1.268       .  A
C905       C1442   1.475       .  S
O907        C922   1.262       .  A
O907       Al915   1.884       .  S
C908        O918   1.267       .  A
C908        O909   1.268       .  A
C908       C1637   1.483       .  S
O909       Al911   1.919       .  S
O910        C912   1.260       .  A
O910       Al911   1.900       .  S
Al911       O919   1.905       .  S
Al911       O921   1.904       .  S
Al911       O920   1.777       .  S
C912        O925   1.257       .  A
C912       C1522   1.501       .  S
O913        C923   1.264       .  A
O913       Al915   1.917       .  S
O914        C927   1.266       .  A
O914       Al924   1.923       .  S
Al915       O928   1.919       .  S
Al915       O925   1.907       .  S
Al915       O920   1.783       .  S
O916        C923   1.262       .  A
O916       Al924   1.914       .  S
O917        C926   1.255       .  A
O917       Al924   1.903       .  S
O918       Al924   1.896       .  S
O919        C926   1.256       .  A
O920       Al924   1.783       .  S
O921        C922   1.263       .  A
C922       C1650   1.470       .  S
C923       C1413   1.486       .  S
C926       C1397   1.483       .  S
C927        O928   1.265       .  A
C927       C1445   1.475       .  S
O929        C944   1.265       .  A
C930        O940   1.270       .  A
C930        O931   1.267       .  A
C930       C1314   1.479       .  S
O931       Al933   1.884       .  S
O932        C934   1.257       .  A
O932       Al933   1.900       .  S
Al933       O941   1.890       .  S
Al933       O942   1.787       .  S
C934        O947   1.260       .  A
C934       C1378   1.488       .  S
O935        C945   1.261       .  A
O935       Al937   1.913       .  S
O936        C949   1.261       .  A
O936       Al946   1.921       .  S
Al937       O947   1.919       .  S
Al937       O942   1.786       .  S
O938        C945   1.259       .  A
O938       Al946   1.894       .  S
O939        C948   1.255       .  A
O939       Al946   1.908       .  S
O940       Al946   1.928       .  S
O941        C948   1.251       .  A
O942       Al946   1.794       .  S
O943        C944   1.264       .  A
C944       C1330   1.459       .  S
C945       C1349   1.501       .  S
C948       C1589   1.481       .  S
O951        C966   1.261       .  A
C952        O962   1.267       .  A
C952        O953   1.269       .  A
C952       C1554   1.471       .  S
O953       Al955   1.919       .  S
O954        C956   1.257       .  A
O954       Al955   1.896   1_455  S
Al955       O963   1.891       .  S
Al955       O964   1.777       .  S
C956        O969   1.255   1_455  A
C956       C1605   1.494       .  S
O957        C967   1.263       .  A
O957       Al959   1.906       .  S
O958        C971   1.263       .  A
O958       Al968   1.919       .  S
Al959       O972   1.912       .  S
Al959       O969   1.900       .  S
Al959       O964   1.783       .  S
O960        C967   1.268       .  A
O960       Al968   1.932       .  S
O961        C970   1.254       .  A
O961       Al968   1.907       .  S
O962       Al968   1.891       .  S
O963        C970   1.255       .  A
O964       Al968   1.786       .  S
O965        C966   1.267       .  A
C966       C1538   1.476       .  S
C967       C1301   1.492       .  S
C970       C1269   1.496       .  S
C971        O972   1.262       .  A
O973        C988   1.272       .  A
O973       Al981   1.926       .  S
C974        O984   1.273       .  A
C974        O975   1.267   1_545  A
C974       C1234   1.470   1_545  S
O975       Al977   1.875       .  S
O976        C978   1.253       .  A
O976       Al977   1.892       .  S
Al977       O985   1.893   1_565  S
Al977       O987   1.902   1_565  S
Al977       O986   1.789   1_565  S
C978        O991   1.259       .  A
C978       C1346   1.477       .  S
O979        C989   1.261       .  A
O979       Al981   1.924       .  S
O980        C993   1.261       .  A
O980       Al990   1.916       .  S
Al981       O994   1.861       .  S
Al981       O991   1.918   1_545  S
Al981       O986   1.788       .  S
O982        C989   1.256       .  A
O982       Al990   1.890       .  S
O983        C992   1.249       .  A
O983       Al990   1.896       .  S
O984       Al990   1.925       .  S
O985        C992   1.251       .  A
O986       Al990   1.792       .  S
O987        C988   1.269       .  A
C988       C1253   1.483       .  S
C989       C1570   1.508       .  S
C992       C1429   1.488       .  S
C993        O994   1.254       .  A
C993       C1285   1.464       .  S
O995       C1010   1.262       .  A
O995      Al1003   1.881       .  S
C996       O1006   1.260       .  A
C996        O997   1.266       .  A
C996       C1237   1.474       .  S
O997       Al999   1.908       .  S
O998       C1000   1.253       .  A
O998       Al999   1.896   1_545  S
Al999      O1007   1.879       .  S
Al999      O1009   1.931       .  S
Al999      O1008   1.775       .  S
C1000      O1013   1.259   1_545  A
C1000      C1298   1.498       .  S
O1001      C1011   1.267       .  A
O1001     Al1003   1.909       .  S
O1002      C1015   1.262       .  A
O1002     Al1012   1.920       .  S
Al1003     O1016   1.906       .  S
Al1003     O1013   1.919       .  S
Al1003     O1008   1.780       .  S
O1004      C1011   1.269       .  A
O1004     Al1012   1.919       .  S
O1005      C1014   1.257       .  A
O1005     Al1012   1.906       .  S
O1006     Al1012   1.880       .  S
O1007      C1014   1.255       .  A
O1008     Al1012   1.781       .  S
O1009      C1010   1.269       .  A
C1010      C1250   1.464       .  S
C1011      C1221   1.487       .  S
C1014      C1205   1.478       .  S
C1015      O1016   1.260       .  A
C1015      C1362   1.467       .  S
O1017      C1032   1.268       .  A
O1017     Al1025   1.906       .  S
C1018      O1028   1.274       .  A
C1018      O1019   1.267       .  A
C1018      C1154   1.479       .  S
O1019     Al1021   1.885       .  S
O1020      C1022   1.254       .  A
O1020     Al1021   1.892   1_655  S
Al1021     O1029   1.885       .  S
Al1021     O1031   1.905       .  S
Al1021     O1030   1.789       .  S
C1022      O1035   1.260   1_655  A
C1022      C1186   1.478       .  S
O1023      C1033   1.261       .  A
O1023     Al1025   1.912       .  S
O1024      C1037   1.263       .  A
O1024     Al1034   1.925       .  S
Al1025     O1038   1.873       .  S
Al1025     O1035   1.918       .  S
Al1025     O1030   1.787       .  S
O1026      C1033   1.257       .  A
O1026     Al1034   1.902       .  S
O1027      C1036   1.256       .  A
O1027     Al1034   1.915       .  S
O1028     Al1034   1.926       .  S
O1029      C1036   1.248       .  A
O1030     Al1034   1.789       .  S
O1031      C1032   1.267       .  A
C1032      C1173   1.477       .  S
C1033      C1461   1.507       .  S
C1036      C1506   1.494       .  S
C1037      O1038   1.256       .  A
C1037      C1138   1.470       .  S
O1039      C1054   1.271       .  A
O1039     Al1047   1.909       .  S
C1040      O1050   1.275       .  A
C1040      O1041   1.264   1_565  A
C1040      C1490   1.477       .  S
O1041     Al1043   1.867   1_545  S
O1042      C1044   1.256       .  A
O1042     Al1043   1.900   1_545  S
Al1043     O1051   1.897       .  S
Al1043     O1053   1.903       .  S
Al1043     O1052   1.789       .  S
C1044      O1057   1.257   1_545  A
C1044      C1410   1.481       .  S
O1045      C1055   1.263       .  A
O1045     Al1047   1.919       .  S
O1046      C1059   1.264       .  A
O1046     Al1056   1.935       .  S
Al1047     O1060   1.862       .  S
Al1047     O1057   1.912       .  S
Al1047     O1052   1.782       .  S
O1048      C1055   1.253       .  A
O1048     Al1056   1.877       .  S
O1049      C1058   1.253       .  A
O1049     Al1056   1.898       .  S
O1050     Al1056   1.946       .  S
O1051      C1058   1.251       .  A
O1052     Al1056   1.786       .  S
O1053      C1054   1.267       .  A
C1054      C1477   1.469   1_565  S
C1055      C1122   1.498       .  S
C1058      C1202   1.488       .  S
C1059      O1060   1.253       .  A
C1059      C1141   1.478       .  S
O1061      C1076   1.260       .  A
O1061     Al1069   1.870       .  S
C1062      O1072   1.263       .  A
C1062      O1063   1.269       .  A
C1062      C1317   1.472       .  S
O1063     Al1065   1.923       .  S
O1064      C1066   1.254       .  A
O1064     Al1065   1.892       .  S
Al1065     O1073   1.890       .  S
Al1065     O1075   1.922       .  S
Al1065     O1074   1.777       .  S
C1066      O1079   1.256       .  A
C1066      C1218   1.492       .  S
O1067      C1077   1.264       .  A
O1067     Al1069   1.908       .  S
O1068      C1081   1.264       .  A
O1068     Al1078   1.922       .  S
Al1069     O1082   1.895       .  S
Al1069     O1079   1.900       .  S
Al1069     O1074   1.783       .  S
O1070      C1077   1.267       .  A
O1070     Al1078   1.922       .  S
O1071      C1080   1.255       .  A
O1071     Al1078   1.913       .  S
O1072     Al1078   1.877       .  S
O1073      C1080   1.253       .  A
O1074     Al1078   1.782       .  S
O1075      C1076   1.266       .  A
C1076      C1333   1.487       .  S
C1077      C1189   1.484       .  S
C1080      C1394   1.473       .  S
C1081      O1082   1.261       .  A
C1081      C1109   1.465       .  S
O1083      C1098   1.271       .  A
O1083     Al1091   1.919       .  S
C1084      O1094   1.279       .  A
C1084      O1085   1.265   1_656  A
C1084      C1157   1.487       .  S
O1086      C1088   1.255       .  A
O1086     Al1087   1.899       .  S
Al1087     O1095   1.884   1_455  S
Al1087     O1097   1.897   1_455  S
Al1087     O1096   1.784   1_455  S
C1088      O1101   1.255       .  A
C1088      C1125   1.483       .  S
O1089      C1099   1.258       .  A
O1089     Al1091   1.906       .  S
O1090      C1103   1.264       .  A
O1090     Al1100   1.926       .  S
Al1091     O1104   1.857       .  S
Al1091     O1101   1.912   1_655  S
Al1091     O1096   1.784       .  S
O1092      C1099   1.253       .  A
O1092     Al1100   1.887       .  S
O1093      C1102   1.250       .  A
O1093     Al1100   1.906       .  S
O1095      C1102   1.246       .  A
O1096     Al1100   1.789       .  S
O1097      C1098   1.268       .  A
C1098      C1170   1.461   1_655  S
C1099      C1381   1.497       .  S
C1102      C1266   1.483       .  S
C1103      O1104   1.256       .  A
C1103      C1106   1.475       .  S
C1105      C1106   1.404       .  A
C1105      C1110   1.395       .  A
C1105      H1112   1.084       .  S
C1106      C1107   1.410       .  A
C1107      C1108   1.410       .  A
C1107      C1114   1.504       .  S
C1108      C1109   1.407       .  A
C1108      H1113   1.084       .  S
C1109      C1110   1.409       .  A
C1110      C1111   1.511       .  S
C1111      H1115   1.110       .  S
C1111      H1116   1.110       .  S
C1111      H1117   1.109       .  S
C1114      H1118   1.110       .  S
C1114      H1119   1.108       .  S
C1114      H1120   1.111       .  S
C1121      C1122   1.409       .  A
C1121      C1126   1.408       .  A
C1121      H1128   1.084       .  S
C1122      C1123   1.425       .  A
C1123      C1124   1.403       .  A
C1123      C1130   1.510       .  S
C1124      C1125   1.400       .  A
C1124      H1129   1.085       .  S
C1125      C1126   1.414       .  A
C1126      C1127   1.507       .  S
C1127      H1131   1.111       .  S
C1127      H1132   1.108       .  S
C1127      H1133   1.110       .  S
C1130      H1134   1.110       .  S
C1130      H1135   1.111       .  S
C1130      H1136   1.111       .  S
C1137      C1138   1.395       .  A
C1137      C1142   1.399       .  A
C1137      H1144   1.085       .  S
C1138      C1139   1.413       .  A
C1139      C1140   1.409       .  A
C1139      C1146   1.505       .  S
C1140      C1141   1.402       .  A
C1140      H1145   1.084       .  S
C1141      C1142   1.418       .  A
C1142      C1143   1.504       .  S
C1143      H1147   1.110       .  S
C1143      H1148   1.111       .  S
C1143      H1149   1.105       .  S
C1146      H1150   1.105       .  S
C1146      H1151   1.110       .  S
C1146      H1152   1.111       .  S
C1153      C1154   1.401       .  A
C1153      C1158   1.400       .  A
C1153      H1160   1.084       .  S
C1154      C1155   1.416   1_455  A
C1155      C1156   1.401       .  A
C1155      C1162   1.507       .  S
C1156      C1157   1.405       .  A
C1156      H1161   1.084       .  S
C1157      C1158   1.424   1_655  A
C1158      C1159   1.511       .  S
C1159      H1163   1.111       .  S
C1159      H1164   1.110       .  S
C1159      H1165   1.111       .  S
C1162      H1166   1.108       .  S
C1162      H1167   1.105       .  S
C1162      H1168   1.111       .  S
C1169      C1170   1.403   1_655  A
C1169      C1174   1.408       .  A
C1169      H1176   1.084       .  S
C1170      C1171   1.406       .  A
C1171      C1172   1.390       .  A
C1171      C1178   1.509       .  S
C1172      C1173   1.405       .  A
C1172      H1177   1.084       .  S
C1173      C1174   1.415   1_455  A
C1174      C1175   1.506       .  S
C1175      H1179   1.111       .  S
C1175      H1180   1.110       .  S
C1175      H1181   1.110       .  S
C1178      H1182   1.105       .  S
C1178      H1183   1.110       .  S
C1178      H1184   1.111       .  S
C1185      C1186   1.404       .  A
C1185      C1190   1.409       .  A
C1185      H1192   1.084       .  S
C1186      C1187   1.413       .  A
C1187      C1188   1.401       .  A
C1187      C1194   1.505       .  S
C1188      C1189   1.403       .  A
C1188      H1193   1.085       .  S
C1189      C1190   1.417       .  A
C1190      C1191   1.507       .  S
C1191      H1195   1.111       .  S
C1191      H1196   1.110       .  S
C1191      H1197   1.110       .  S
C1194      H1198   1.110       .  S
C1194      H1199   1.107       .  S
C1194      H1200   1.111       .  S
C1201      C1202   1.408       .  A
C1201      C1206   1.405       .  A
C1201      H1208   1.084       .  S
C1202      C1203   1.421       .  A
C1203      C1204   1.401       .  A
C1203      C1210   1.510   1_565  S
C1204      C1205   1.402       .  A
C1204      H1209   1.085   1_565  S
C1205      C1206   1.412       .  A
C1206      C1207   1.507       .  S
C1207      H1211   1.111       .  S
C1207      H1212   1.109       .  S
C1207      H1213   1.111       .  S
C1210      H1214   1.110       .  S
C1210      H1215   1.110       .  S
C1210      H1216   1.111       .  S
C1217      C1218   1.410       .  A
C1217      C1222   1.406       .  A
C1217      H1224   1.084       .  S
C1218      C1219   1.418       .  A
C1219      C1220   1.401       .  A
C1219      C1226   1.509       .  S
C1220      C1221   1.405       .  A
C1220      H1225   1.083       .  S
C1221      C1222   1.414       .  A
C1222      C1223   1.507       .  S
C1223      H1227   1.111       .  S
C1223      H1228   1.110       .  S
C1223      H1229   1.110       .  S
C1226      H1230   1.110       .  S
C1226      H1231   1.109       .  S
C1226      H1232   1.111       .  S
C1233      C1234   1.402       .  A
C1233      C1238   1.398       .  A
C1233      H1240   1.084       .  S
C1234      C1235   1.413   1_565  A
C1235      C1236   1.400   1_545  A
C1235      C1242   1.508       .  S
C1236      C1237   1.404       .  A
C1236      H1241   1.084   1_565  S
C1237      C1238   1.416       .  A
C1238      C1239   1.508       .  S
C1239      H1243   1.111       .  S
C1239      H1244   1.111       .  S
C1239      H1245   1.109       .  S
C1242      H1246   1.109       .  S
C1242      H1247   1.111       .  S
C1242      H1248   1.111       .  S
C1249      C1250   1.402       .  A
C1249      H1256   1.084       .  S
C1250      C1251   1.406   1_565  A
C1251      C1258   1.507       .  S
C1252      C1253   1.406       .  A
C1252      H1257   1.084       .  S
C1253      C1254   1.417   1_545  A
C1254      C1255   1.507       .  S
C1255      H1259   1.111       .  S
C1255      H1260   1.111       .  S
C1255      H1261   1.110       .  S
C1258      H1262   1.109       .  S
C1258      H1263   1.110       .  S
C1258      H1264   1.111       .  S
C1265      C1266   1.402       .  A
C1265      C1270   1.409       .  A
C1265      H1272   1.084       .  S
C1266      C1267   1.416       .  A
C1267      C1268   1.401       .  A
C1267      C1274   1.511   1_655  S
C1268      C1269   1.406       .  A
C1268      H1273   1.084       .  S
C1269      C1270   1.424       .  A
C1270      C1271   1.508       .  S
C1271      H1275   1.111       .  S
C1271      H1276   1.110       .  S
C1271      H1277   1.110       .  S
C1274      H1278   1.109       .  S
C1274      H1279   1.111   1_455  S
C1274      H1280   1.111       .  S
C1281      C1282   1.406       .  A
C1281      C1286   1.405       .  A
C1281      H1288   1.084       .  S
C1282      C1283   1.407       .  A
C1283      C1284   1.400       .  A
C1284      C1285   1.404       .  A
C1284      H1289   1.085       .  S
C1285      C1286   1.408       .  A
C1286      C1287   1.507       .  S
C1287      H1291   1.111       .  S
C1287      H1292   1.110       .  S
C1287      H1293   1.111       .  S
C1290      H1294   1.110       .  S
C1290      H1295   1.109       .  S
C1297      C1298   1.409       .  A
C1297      C1302   1.407       .  A
C1297      H1304   1.084       .  S
C1298      C1299   1.421       .  A
C1299      C1300   1.405       .  A
C1299      C1306   1.509       .  S
C1300      C1301   1.404       .  A
C1300      H1305   1.084       .  S
C1301      C1302   1.417       .  A
C1302      C1303   1.508       .  S
C1303      H1307   1.111       .  S
C1303      H1308   1.110       .  S
C1303      H1309   1.110       .  S
C1306      H1310   1.110       .  S
C1306      H1311   1.109       .  S
C1306      H1312   1.111       .  S
C1313      C1314   1.404       .  A
C1313      C1318   1.399       .  A
C1313      H1320   1.084       .  S
C1314      C1315   1.417       .  A
C1315      C1316   1.403       .  A
C1315      C1322   1.507       .  S
C1316      C1317   1.402       .  A
C1316      H1321   1.084       .  S
C1317      C1318   1.413       .  A
C1318      C1319   1.509       .  S
C1319      H1323   1.111       .  S
C1319      H1324   1.109       .  S
C1319      H1325   1.111       .  S
C1322      H1326   1.109       .  S
C1322      H1327   1.109       .  S
C1322      H1328   1.111       .  S
C1329      C1330   1.398       .  A
C1329      C1334   1.405       .  A
C1329      H1336   1.084       .  S
C1330      C1331   1.405       .  A
C1331      C1332   1.395       .  A
C1331      C1338   1.508       .  S
C1332      C1333   1.410       .  A
C1332      H1337   1.084       .  S
C1333      C1334   1.422       .  A
C1334      C1335   1.507       .  S
C1335      H1339   1.111       .  S
C1335      H1340   1.110       .  S
C1335      H1341   1.110       .  S
C1338      H1342   1.106       .  S
C1338      H1343   1.110       .  S
C1338      H1344   1.110       .  S
C1345      C1346   1.401       .  A
C1345      C1350   1.409       .  A
C1345      H1352   1.085       .  S
C1346      C1347   1.410       .  A
C1347      C1348   1.405       .  A
C1347      C1354   1.508       .  S
C1348      C1349   1.411       .  A
C1348      H1353   1.082       .  S
C1349      C1350   1.424       .  A
C1350      C1351   1.508       .  S
C1351      H1355   1.111       .  S
C1351      H1356   1.110       .  S
C1351      H1357   1.110       .  S
C1354      H1358   1.110       .  S
C1354      H1359   1.109       .  S
C1354      H1360   1.111       .  S
C1361      C1362   1.403       .  A
C1361      C1366   1.404       .  A
C1361      H1368   1.083       .  S
C1362      C1363   1.408       .  A
C1363      C1364   1.405       .  A
C1363      C1370   1.506       .  S
C1364      C1365   1.405       .  A
C1364      H1369   1.084       .  S
C1365      C1366   1.411       .  A
C1367      H1372   1.110       .  S
C1367      H1373   1.111       .  S
C1370      H1374   1.111       .  S
C1370      H1375   1.110       .  S
C1370      H1376   1.110       .  S
C1377      C1378   1.403       .  A
C1377      H1384   1.084       .  S
C1378      C1379   1.415       .  A
C1379      C1380   1.410   1_556  A
C1379      C1386   1.507   1_556  S
C1380      H1385   1.083       .  S
C1381      C1382   1.422       .  A
C1382      C1383   1.510       .  S
C1383      H1387   1.111       .  S
C1383      H1388   1.109       .  S
C1383      H1389   1.111       .  S
C1386      H1390   1.109       .  S
C1386      H1391   1.110   1_554  S
C1386      H1392   1.111       .  S
C1393      C1394   1.403       .  A
C1393      C1398   1.406       .  A
C1393      H1400   1.084       .  S
C1394      C1395   1.409       .  A
C1395      C1396   1.404       .  A
C1395      C1402   1.508       .  S
C1396      C1397   1.408       .  A
C1396      H1401   1.084       .  S
C1397      C1398   1.415       .  A
C1398      C1399   1.507       .  S
C1399      H1403   1.111       .  S
C1399      H1404   1.111       .  S
C1399      H1405   1.109       .  S
C1402      H1406   1.111       .  S
C1402      H1407   1.110       .  S
C1402      H1408   1.111       .  S
C1409      C1410   1.402       .  A
C1409      C1414   1.403       .  A
C1409      H1416   1.084       .  S
C1410      C1411   1.417       .  A
C1411      C1412   1.408       .  A
C1411      C1418   1.506       .  S
C1412      C1413   1.404       .  A
C1412      H1417   1.084       .  S
C1413      C1414   1.418       .  A
C1414      C1415   1.509       .  S
C1415      H1419   1.111       .  S
C1415      H1420   1.108       .  S
C1415      H1421   1.111       .  S
C1418      H1422   1.107       .  S
C1418      H1423   1.110       .  S
C1418      H1424   1.111       .  S
C1425      C1426   1.408       .  A
C1425      C1430   1.407       .  A
C1425      H1432   1.084       .  S
C1426      C1427   1.421       .  A
C1427      C1428   1.401       .  A
C1427      C1434   1.510   1_545  S
C1428      C1429   1.404       .  A
C1428      H1433   1.084   1_545  S
C1429      C1430   1.416       .  A
C1430      C1431   1.507       .  S
C1431      H1435   1.111       .  S
C1431      H1436   1.110       .  S
C1431      H1437   1.111       .  S
C1434      H1438   1.110       .  S
C1434      H1439   1.110       .  S
C1434      H1440   1.111       .  S
C1441      C1442   1.402       .  A
C1441      C1446   1.404       .  A
C1441      H1448   1.083       .  S
C1442      C1443   1.408       .  A
C1443      C1444   1.409       .  A
C1443      C1450   1.504       .  S
C1444      C1445   1.406       .  A
C1444      H1449   1.084       .  S
C1445      C1446   1.410       .  A
C1446      C1447   1.506       .  S
C1447      H1451   1.110       .  S
C1447      H1452   1.110       .  S
C1447      H1453   1.110       .  S
C1450      H1454   1.110       .  S
C1450      H1455   1.111       .  S
C1450      H1456   1.108       .  S
C1457      C1458   1.409       .  A
C1457      C1462   1.409       .  A
C1457      H1464   1.084       .  S
C1458      C1459   1.420       .  A
C1459      C1460   1.412       .  A
C1459      C1466   1.505       .  S
C1460      C1461   1.409       .  A
C1460      H1465   1.083       .  S
C1461      C1462   1.422       .  A
C1462      C1463   1.509       .  S
C1463      H1467   1.111       .  S
C1463      H1468   1.110       .  S
C1463      H1469   1.110       .  S
C1466      H1470   1.106       .  S
C1466      H1471   1.110       .  S
C1466      H1472   1.111       .  S
C1473      C1474   1.408       .  A
C1473      C1478   1.408       .  A
C1473      H1480   1.084       .  S
C1474      C1475   1.420       .  A
C1475      C1476   1.390       .  A
C1475      C1482   1.511       .  S
C1476      C1477   1.397       .  A
C1476      H1481   1.085       .  S
C1477      C1478   1.412       .  A
C1478      C1479   1.507   1_545  S
C1479      H1483   1.111       .  S
C1479      H1484   1.110   1_565  S
C1479      H1485   1.106       .  S
C1482      H1486   1.110       .  S
C1482      H1487   1.107       .  S
C1482      H1488   1.111       .  S
C1489      C1490   1.405       .  A
C1489      H1496   1.084       .  S
C1490      C1491   1.416   1_565  A
C1491      C1498   1.511       .  S
C1492      C1493   1.403       .  A
C1492      H1497   1.083       .  S
C1493      C1494   1.417   1_545  A
C1494      C1495   1.507       .  S
C1495      H1499   1.111       .  S
C1495      H1500   1.110       .  S
C1495      H1501   1.110       .  S
C1498      H1502   1.109       .  S
C1498      H1503   1.111       .  S
C1498      H1504   1.111       .  S
C1505      C1506   1.404       .  A
C1505      C1510   1.408       .  A
C1505      H1512   1.084       .  S
C1506      C1507   1.423       .  A
C1507      C1508   1.402       .  A
C1507      C1514   1.509   1_455  S
C1508      C1509   1.403       .  A
C1508      H1513   1.084       .  S
C1509      C1510   1.423       .  A
C1510      C1511   1.508       .  S
C1511      H1515   1.111       .  S
C1511      H1516   1.110       .  S
C1511      H1517   1.111       .  S
C1514      H1518   1.110       .  S
C1514      H1519   1.110       .  S
C1514      H1520   1.111       .  S
C1521      C1522   1.407       .  A
C1521      C1526   1.407       .  A
C1521      H1528   1.084       .  S
C1522      C1523   1.425       .  A
C1523      C1524   1.408       .  A
C1523      C1530   1.508       .  S
C1524      C1525   1.402       .  A
C1524      H1529   1.084       .  S
C1525      C1526   1.421       .  A
C1526      C1527   1.509       .  S
C1527      H1531   1.111       .  S
C1527      H1532   1.109       .  S
C1527      H1533   1.109       .  S
C1530      H1534   1.110       .  S
C1530      H1535   1.110       .  S
C1530      H1536   1.111       .  S
C1537      C1538   1.402       .  A
C1537      C1542   1.397       .  A
C1537      H1544   1.084       .  S
C1538      C1539   1.415       .  A
C1539      C1540   1.405   1_655  A
C1539      C1546   1.505       .  S
C1540      C1541   1.400   1_455  A
C1540      H1545   1.084       .  S
C1541      C1542   1.410       .  A
C1542      C1543   1.504       .  S
C1543      H1547   1.111       .  S
C1543      H1548   1.109   1_655  S
C1543      H1549   1.107       .  S
C1546      H1550   1.109   1_655  S
C1546      H1551   1.111       .  S
C1546      H1552   1.111   1_655  S
C1553      C1554   1.398       .  A
C1553      C1558   1.403       .  A
C1553      H1560   1.084       .  S
C1554      C1555   1.411   1_655  A
C1555      C1556   1.402       .  A
C1555      C1562   1.507       .  S
C1556      C1557   1.407       .  A
C1556      H1561   1.083       .  S
C1557      C1558   1.422   1_455  A
C1558      C1559   1.509       .  S
C1559      H1563   1.111       .  S
C1559      H1564   1.111       .  S
C1559      H1565   1.109       .  S
C1562      H1566   1.110       .  S
C1562      H1567   1.110       .  S
C1562      H1568   1.111       .  S
C1569      C1570   1.411       .  A
C1569      C1574   1.410       .  A
C1569      H1576   1.084       .  S
C1570      C1571   1.419       .  A
C1571      C1572   1.412       .  A
C1571      C1578   1.507       .  S
C1572      C1573   1.410       .  A
C1572      H1577   1.084       .  S
C1573      C1574   1.420       .  A
C1574      C1575   1.509       .  S
C1575      H1579   1.111       .  S
C1575      H1580   1.111       .  S
C1575      H1581   1.109       .  S
C1578      H1582   1.110       .  S
C1578      H1583   1.110       .  S
C1578      H1584   1.111       .  S
C1585      C1586   1.407       .  A
C1585      C1590   1.401       .  A
C1585      H1592   1.084       .  S
C1586      C1587   1.424       .  A
C1587      C1588   1.408       .  A
C1587      C1594   1.508       .  S
C1588      C1589   1.401       .  A
C1588      H1593   1.084       .  S
C1589      C1590   1.416       .  A
C1590      C1591   1.511       .  S
C1591      H1595   1.111       .  S
C1591      H1596   1.109       .  S
C1591      H1597   1.111       .  S
C1594      H1599   1.110       .  S
C1594      H1600   1.111   1_556  S
C1601      C1606   1.405       .  A
C1601      H1608   1.084       .  S
C1602      C1603   1.416       .  A
C1603      C1610   1.509       .  S
C1604      C1605   1.406       .  A
C1604      H1609   1.083       .  S
C1605      C1606   1.424       .  A
C1606      C1607   1.509       .  S
C1607      H1611   1.111       .  S
C1607      H1612   1.110       .  S
C1607      H1613   1.110       .  S
C1610      H1614   1.109       .  S
C1610      H1615   1.111       .  S
C1610      H1616   1.111       .  S
C1617      C1618   1.404       .  A
C1617      C1622   1.410       .  A
C1617      H1624   1.084       .  S
C1618      C1619   1.414       .  A
C1619      C1620   1.400       .  A
C1619      C1626   1.500       .  S
C1620      C1621   1.396       .  A
C1620      H1625   1.085       .  S
C1621      C1622   1.412       .  A
C1622      C1623   1.506       .  S
C1623      H1627   1.111       .  S
C1623      H1628   1.107       .  S
C1623      H1629   1.110       .  S
C1626      H1630   1.109       .  S
C1626      H1631   1.108       .  S
C1626      H1632   1.110       .  S
C1633      C1634   1.405       .  A
C1633      C1638   1.401       .  A
C1633      H1640   1.083       .  S
C1634      C1635   1.424       .  A
C1635      C1636   1.405       .  A
C1635      C1642   1.509       .  S
C1636      C1637   1.402       .  A
C1636      H1641   1.084       .  S
C1637      C1638   1.417       .  A
C1638      C1639   1.509       .  S
C1639      H1643   1.111       .  S
C1639      H1644   1.109       .  S
C1639      H1645   1.109       .  S
C1642      H1646   1.110       .  S
C1642      H1647   1.110       .  S
C1642      H1648   1.111       .  S
C1649      C1650   1.401       .  A
C1649      C1654   1.399       .  A
C1649      H1656   1.084       .  S
C1650      C1651   1.416       .  A
C1651      C1652   1.399       .  A
C1651      C1658   1.509       .  S
C1652      C1653   1.401       .  A
C1652      H1657   1.081       .  S
C1653      C1654   1.414       .  A
C1654      C1655   1.506       .  S
C1655      H1659   1.103       .  S
C1655      H1660   1.109       .  S
C1655      H1661   1.110       .  S
C1658      H1662   1.108       .  S
C1658      H1663   1.109       .  S
C1658      H1664   1.111       .  S
C1665      C1666   1.404       .  A
C1665      C1670   1.409       .  A
C1665      H1672   1.084       .  S
C1666      C1667   1.419       .  A
C1667      C1668   1.409       .  A
C1667      C1674   1.508       .  S
C1668      C1669   1.408       .  A
C1668      H1673   1.083       .  S
C1669      C1670   1.424       .  A
C1670      C1671   1.509       .  S
C1671      H1675   1.111       .  S
C1671      H1676   1.110       .  S
C1671      H1677   1.110       .  S
C1674      H1678   1.109       .  S
C1674      H1679   1.109       .  S
C1674      H1680   1.111       .  S
