geometry optimzed in LAMMPS
_audit_creation_date              2020-12-01 
_audit_creation_method            'lammps2cif' 
_symmetry_space_group_name_H-M    'P1' 
_symmetry_Int_Tables_number       1 
_symmetry_cell_setting            triclinic 
loop_ 
_symmetry_equiv_pos_as_xyz 
  x,y,z 
_cell_length_a                    38.16305278 
_cell_length_b                    38.111591979543896 
_cell_length_c                    42.06444723115059 
_cell_angle_alpha                 89.89686525058202 
_cell_angle_beta                  90.10321043205644 
_cell_angle_gamma                 90.01007783301607 
loop_ 
_atom_site_label 
_atom_site_type_symbol 
_atom_site_fract_x 
_atom_site_fract_y 
_atom_site_fract_z 
_atom_site_charge 
O1          O  0.44805076  0.71403059  0.07588847    -0.81000
C2          C  0.38331399  0.67710333  0.19143213     0.98400
O3          O  0.36737666  0.68003108  0.16516991    -0.70100
O4          O  0.37646001  0.74028777  0.13811597    -0.73700
Al5        Al  0.38332651  0.69408309  0.12375941     1.49000
C6          C  0.39187133  0.76705145  0.12790487     0.93600
O7          O  0.46820982  0.74442760  0.16060913    -0.79900
O8          O  0.47809385  0.64655385  0.12840074    -0.73500
Al9        Al  0.45703471  0.72772506  0.11855886     1.90100
O10         O  0.47969497  0.69178553  0.17937507    -0.72500
O11         O  0.41609514  0.62416988  0.14549688    -0.72400
O12         O  0.41608413  0.67415557  0.19237713    -0.78000
O13         O  0.38339573  0.64733315  0.10838449    -0.76200
O14         O  0.42862078  0.69442581  0.13370021    -1.12400
O15         O  0.39079423  0.70792809  0.08025583    -0.71600
C16         C  0.41812852  0.71027938  0.06325260     0.99200
C17         C  0.48153009  0.72480656  0.18172180     0.95600
Al18       Al  0.44600283  0.66181236  0.15920623     1.55600
O19         O  0.42207125  0.76466397  0.11582471    -0.76200
C20         C  0.39443412  0.62072765  0.12299220     0.99700
C21         C  0.50326501  0.66537881  0.11934819     0.94600
O22         O  0.49920652  0.69840823  0.11740182    -0.81500
O23         O  0.47292747  0.69005124  0.87859730    -0.81000
C24         C  0.34876763  0.67784031  0.80601177     0.98400
O25         O  0.37346157  0.65572555  0.80635358    -0.70100
O26         O  0.43160100  0.68866056  0.79462064    -0.73700
Al27       Al  0.41832765  0.65684445  0.82675666     1.49000
C28         C  0.45356053  0.71316646  0.79684635     0.93600
O29         O  0.40816140  0.76090496  0.85190537    -0.79900
O30         O  0.38184673  0.68577611  0.91260258    -0.73500
Al31       Al  0.43843579  0.72319099  0.86480400     1.90100
O32         O  0.36121123  0.74095492  0.87564622    -0.72500
O33         O  0.35597122  0.64117919  0.86983595    -0.72400
O34         O  0.34315206  0.69754714  0.82958384    -0.78000
O35         O  0.40666225  0.62041072  0.85553504    -0.76200
O36         O  0.40724632  0.69041709  0.85406189    -1.12400
O37         O  0.46542352  0.65135388  0.84081189    -0.71600
C38         C  0.48365523  0.66377985  0.86315718     0.99200
C39         C  0.37777182  0.76576677  0.86277762     0.95600
Al40       Al  0.36416626  0.69126378  0.87060091     1.55600
O41         O  0.46021454  0.72676903  0.82358583    -0.76200
C42         C  0.37653043  0.61541949  0.86675948     0.99700
C43         C  0.40425136  0.70570537  0.92556241     0.94600
O44         O  0.42350531  0.72544564  0.90861590    -0.81500
O45         O  0.73338515  0.54734954  0.07686289    -0.81000
C46         C  0.69568150  0.61270265  0.19150238     0.98400
O47         O  0.69993653  0.62896143  0.16549127    -0.70100
O48         O  0.76061057  0.61861288  0.13887638    -0.73700
Al49       Al  0.71449996  0.61284245  0.12400908     1.49000
C50         C  0.78726694  0.60253023  0.12935569     0.93600
O51         O  0.76315780  0.52757056  0.16103436    -0.79900
O52         O  0.66542913  0.51948109  0.12748129    -0.73500
Al53       Al  0.74689945  0.53840036  0.11901402     1.90100
O54         O  0.71047889  0.51589172  0.17911748    -0.72500
O55         O  0.64463388  0.58134284  0.14553996    -0.72400
O56         O  0.69396542  0.57981211  0.19201461    -0.78000
O57         O  0.66775991  0.61379631  0.10828339    -0.76200
O58         O  0.71409931  0.56748415  0.13380784    -1.12400
O59         O  0.72852421  0.60487452  0.08056997    -0.71600
C60         C  0.72971633  0.57707898  0.06397554     0.99200
C61         C  0.74341202  0.51564906  0.18256421     0.95600
Al62       Al  0.68125969  0.55049030  0.15886519     1.55600
O63         O  0.78441166  0.57267286  0.11660218    -0.76200
C64         C  0.64127522  0.60341683  0.12338704     0.99700
C65         C  0.68348130  0.49422026  0.11756008     0.94600
O66         O  0.71670265  0.49678708  0.11721915    -0.81500
O67         O  0.69995904  0.51399432  0.88098883    -0.81000
C68         C  0.68620169  0.63823778  0.80755197     0.98400
O69         O  0.66612951  0.61196614  0.80725409    -0.70100
O70         O  0.70146282  0.55533239  0.79646162    -0.73700
Al71       Al  0.66810544  0.56759227  0.82758444     1.49000
C72         C  0.72610896  0.53372162  0.79985822     0.93600
O73         O  0.77096871  0.57879982  0.85526470    -0.79900
O74         O  0.69545783  0.60580313  0.91396553    -0.73500
Al75       Al  0.73332855  0.54859096  0.86758234     1.90100
O76         O  0.75014942  0.62689255  0.87657205    -0.72500
O77         O  0.65030343  0.62965844  0.87064573    -0.72400
O78         O  0.70626275  0.64411415  0.83081468    -0.78000
O79         O  0.63064173  0.57871421  0.85526397    -0.76200
O80         O  0.70062692  0.57950525  0.85572337    -1.12400
O81         O  0.66307448  0.52037634  0.84146970    -0.71600
C82         C  0.67457344  0.50270292  0.86459228     0.99200
C83         C  0.77513470  0.60998328  0.86446467     0.95600
Al84       Al  0.70054685  0.62287050  0.87179987     1.55600
O85         O  0.73808047  0.52659707  0.82707757    -0.76200
C86         C  0.62489563  0.60892387  0.86618162     0.99700
C87         C  0.71571186  0.58390424  0.92717555     0.94600
O88         O  0.73498841  0.56405266  0.91066224    -0.81500
O89         O  0.56535394  0.26229152  0.07541941    -0.81000
C90         C  0.63769308  0.30413552  0.18532656     0.98400
O91         O  0.65099776  0.30266006  0.15786447    -0.70100
O92         O  0.64153225  0.24106055  0.13394214    -0.73700
Al93       Al  0.63207727  0.28598392  0.11844033     1.49000
C94         C  0.62560050  0.21316611  0.12752018     0.93600
O95         O  0.54955691  0.23488406  0.16161531    -0.79900
O96         O  0.53795669  0.33212402  0.12892273    -0.73500
Al97       Al  0.55906170  0.25036659  0.11880018     1.90100
O98         O  0.53966630  0.28769177  0.18007663    -0.72500
O99         O  0.60127327  0.35441725  0.14245357    -0.72400
O100        O  0.60501493  0.30389516  0.18922122    -0.78000
O101        O  0.62838472  0.33204398  0.10152233    -0.76200
O102        O  0.58780569  0.28440808  0.13153687    -1.12400
O103        O  0.62231678  0.26966093  0.07644892    -0.71600
C104        C  0.59401663  0.26643860  0.06102420     0.99200
C105        C  0.53740505  0.25482745  0.18289118     0.95600
Al106      Al  0.57226801  0.31688722  0.15792291     1.55600
O107        O  0.59455222  0.21383239  0.11686910    -0.76200
C108        C  0.61980227  0.35830306  0.11782930     0.99700
C109        C  0.51337646  0.31292778  0.11900184     0.94600
O110        O  0.51742886  0.27985630  0.11768357    -0.81500
O111        O  0.52694414  0.28888159  0.87927209    -0.81000
C112        C  0.64875859  0.29807403  0.80156186     0.98400
O113        O  0.62243013  0.31804261  0.80099129    -0.70100
O114        O  0.56505229  0.28231253  0.79334443    -0.73700
Al115      Al  0.57875194  0.31727246  0.82276940     1.49000
C116        C  0.54212145  0.25928210  0.79858982     0.93600
O117        O  0.58874994  0.21557684  0.85310561    -0.79900
O118        O  0.61943844  0.29188728  0.90927347    -0.73500
Al119      Al  0.56001640  0.25416049  0.86559400     1.90100
O120        O  0.63827934  0.23626344  0.87198883    -0.72500
O121        O  0.64164319  0.33594031  0.86525054    -0.72400
O122        O  0.65546001  0.27952754  0.82568754    -0.78000
O123        O  0.59118595  0.35601596  0.84880207    -0.76200
O124        O  0.59117174  0.28585301  0.85179944    -1.12400
O125        O  0.53199879  0.32332496  0.83777772    -0.71600
C126        C  0.51510921  0.31332205  0.86193062     0.99200
C127        C  0.62012248  0.21110103  0.86161516     0.95600
Al128      Al  0.63497209  0.28589849  0.86686679     1.55600
O129        O  0.53579611  0.24885672  0.82638725    -0.76200
C130        C  0.62096124  0.36140631  0.86089212     0.99700
C131        C  0.59773235  0.27251319  0.92354698     0.94600
O132        O  0.57710134  0.25293781  0.90813920    -0.81500
O133        O  0.28133134  0.42788321  0.07477223    -0.81000
C134        C  0.32182914  0.36207169  0.18884950     0.98400
O135        O  0.31907508  0.34666612  0.16238125    -0.70100
O136        O  0.25800701  0.35663932  0.13759836    -0.73700
Al137      Al  0.30336758  0.36327237  0.12172780     1.49000
C138        C  0.23075472  0.37291449  0.12977163     0.93600
O139        O  0.25596105  0.44987984  0.16060898    -0.79900
O140        O  0.35277460  0.45727613  0.12608729    -0.73500
Al141      Al  0.27044526  0.43758955  0.11800860     1.90100
O142        O  0.30925981  0.45981164  0.17789352    -0.72500
O143        O  0.37339943  0.39450109  0.14280980    -0.72400
O144        O  0.32456012  0.39493974  0.19027866    -0.78000
O145        O  0.34943113  0.36354985  0.10486367    -0.76200
O146        O  0.30374245  0.40860067  0.13202800    -1.12400
O147        O  0.28743608  0.37068117  0.07895938    -0.71600
C148        C  0.28387929  0.39791882  0.06201549     0.99200
C149        C  0.27653888  0.46259105  0.18121164     0.95600
Al150      Al  0.33723712  0.42516526  0.15706912     1.55600
O151        O  0.23269848  0.40331254  0.11776370    -0.76200
C152        C  0.37619858  0.37357521  0.11978733     0.99700
C153        C  0.33415380  0.48236480  0.11630985     0.94600
O154        O  0.30103942  0.47875307  0.11487549    -0.81500
O155        O  0.29862381  0.46151227  0.88218825    -0.81000
C156        C  0.31097796  0.34382561  0.80047720     0.98400
O157        O  0.33106552  0.37009727  0.80121480    -0.70100
O158        O  0.29613003  0.42783996  0.79502888    -0.73700
Al159      Al  0.33003653  0.41255007  0.82487744     1.49000
C160        C  0.27248679  0.45002972  0.80025864     0.93600
O161        O  0.22781929  0.39921519  0.85224664    -0.79900
O162        O  0.30350403  0.36783341  0.90964267    -0.73500
Al163      Al  0.26530915  0.42826848  0.86656036     1.90100
O164        O  0.24885491  0.34949812  0.87052809    -0.72500
O165        O  0.34865569  0.34750629  0.86514458    -0.72400
O166        O  0.29287978  0.33534900  0.82436181    -0.78000
O167        O  0.36830833  0.39890440  0.85095761    -0.76200
O168        O  0.29804925  0.39835677  0.85265162    -1.12400
O169        O  0.33545633  0.45840362  0.84230213    -0.71600
C170        C  0.32374779  0.47423433  0.86639065     0.99200
C171        C  0.22372213  0.36747022  0.85980648     0.95600
Al172      Al  0.29847632  0.35385726  0.86635989     1.55600
O173        O  0.26050267  0.45437975  0.82785686    -0.76200
C174        C  0.37400269  0.36846050  0.86147377     0.99700
C175        C  0.28334922  0.38876092  0.92410791     0.94600
O176        O  0.26354754  0.40922134  0.90862447    -0.81500
O177        O  0.73175530  0.42961872  0.41109008    -0.81000
C178        C  0.68980938  0.36107029  0.29857355     0.98400
O179        O  0.69144847  0.34654897  0.32564117    -0.70100
O180        O  0.75258129  0.35433577  0.35165911    -0.73700
Al181      Al  0.70727550  0.36412355  0.36622709     1.49000
C182        C  0.78069691  0.36949800  0.35879391     0.93600
O183        O  0.76005819  0.44659982  0.32563704    -0.79900
O184        O  0.66267978  0.45980170  0.35720977    -0.76700
Al185      Al  0.74402247  0.43668875  0.36791686     1.90100
O186        O  0.70797131  0.45874016  0.30653045    -0.72500
O187        O  0.63961414  0.39726234  0.34195317    -0.72400
O188        O  0.68986593  0.39397406  0.29596662    -0.78000
O189        O  0.66083599  0.36757432  0.38204430    -0.76200
O190        O  0.70961359  0.40886291  0.35417634    -1.12400
O191        O  0.72255681  0.37279623  0.40916908    -0.71600
C192        C  0.72687568  0.40068059  0.42507478     0.99200
C193        C  0.74093122  0.45963734  0.30415618     0.95600
Al194      Al  0.67766895  0.42598376  0.32773353     1.55600
O195        O  0.78020593  0.40045504  0.36975480    -0.76200
C196        C  0.63504097  0.37743403  0.36564302     0.99700
C197        C  0.68216542  0.48392213  0.36752289     0.94600
O198        O  0.71513334  0.47912570  0.36926360    -0.81500
O199        O  0.70286201  0.46643790  0.60927316    -0.81000
C200        C  0.69290899  0.34269918  0.68463294     0.98400
O201        O  0.67367867  0.36950638  0.68613457    -0.70100
O202        O  0.70924759  0.42635666  0.69466259    -0.73700
Al203      Al  0.67438112  0.41366293  0.66509148     1.49000
C204        C  0.73187878  0.44980778  0.69028374     0.93600
O205        O  0.77555079  0.40314303  0.63534424    -0.79900
O206        O  0.69929448  0.37530923  0.57719899    -0.73500
Al207      Al  0.73745978  0.43295282  0.62271269     1.90100
O208        O  0.75443780  0.35453718  0.61480981    -0.72500
O209        O  0.65484391  0.35226271  0.62100951    -0.72400
O210        O  0.71095850  0.33644311  0.66021006    -0.78000
O211        O  0.63551995  0.40216097  0.63931745    -0.76200
O212        O  0.70545070  0.40174997  0.63569585    -1.12400
O213        O  0.66835748  0.46074749  0.65063548    -0.71600
C214        C  0.67817452  0.47783869  0.62650666     0.99200
C215        C  0.77941818  0.37155593  0.62697175     0.95600
Al216      Al  0.70489532  0.35841683  0.61953218     1.55600
O217        O  0.74260828  0.45681909  0.66265394    -0.76200
C218        C  0.62961858  0.37273593  0.62693766     0.99700
C219        C  0.71952697  0.39666798  0.56334339     0.94600
O220        O  0.73906591  0.41671345  0.57949223    -0.81500
O221        O  0.56601873  0.71744996  0.41160846    -0.81000
C222        C  0.63893780  0.67341893  0.30224053     0.98400
O223        O  0.65187917  0.67709642  0.32958471    -0.70100
O224        O  0.64189406  0.73921041  0.35266228    -0.73700
Al225      Al  0.63279464  0.69400612  0.36840072     1.49000
C226        C  0.62584905  0.76693126  0.35954831     0.93600
O227        O  0.55085867  0.74487666  0.32489693    -0.79900
O228        O  0.53739252  0.64814060  0.35749371    -0.73500
Al229      Al  0.55966864  0.72939810  0.36791926     1.90100
O230        O  0.54156132  0.69219404  0.30580418    -0.72500
O231        O  0.60051748  0.62481947  0.34546306    -0.72400
O232        O  0.60634686  0.67361385  0.29778281    -0.78000
O233        O  0.62974580  0.64773241  0.38517685    -0.76200
O234        O  0.58840721  0.69516717  0.35526517    -1.12400
O235        O  0.62303327  0.71042421  0.41036732    -0.71600
C236        C  0.59495772  0.71373333  0.42597199     0.99200
C237        C  0.54101003  0.72508265  0.30249568     0.95600
Al238      Al  0.57266520  0.66244774  0.32897450     1.55600
O239        O  0.59494093  0.76578172  0.37023804    -0.76200
C240        C  0.62038652  0.62133935  0.36925744     0.99700
C241        C  0.51336821  0.66755641  0.36802172     0.94600
O242        O  0.51771411  0.70054673  0.36887476    -0.81500
O243        O  0.52775813  0.69497168  0.60568304    -0.81000
C244        C  0.64480374  0.67929451  0.68752455     0.98400
O245        O  0.61920678  0.65851963  0.68526172    -0.70100
O246        O  0.56193478  0.69430873  0.69232457    -0.73700
Al247      Al  0.57676445  0.66120204  0.66172810     1.49000
C248        C  0.54070809  0.71907997  0.68789971     0.93600
O249        O  0.59092923  0.76478569  0.63539756    -0.79900
O250        O  0.62248118  0.68971794  0.57828888    -0.73500
Al251      Al  0.56154423  0.72743389  0.62129878     1.90100
O252        O  0.64061038  0.74349118  0.61791327    -0.72500
O253        O  0.64186896  0.64348543  0.62257693    -0.72400
O254        O  0.65357124  0.69858025  0.66439491    -0.78000
O255        O  0.58989893  0.62372153  0.63455258    -0.76200
O256        O  0.59121208  0.69413225  0.63482238    -1.12400
O257        O  0.53099256  0.65684595  0.64459891    -0.71600
C258        C  0.51509489  0.66948916  0.62095658     0.99200
C259        C  0.62262739  0.76882584  0.62802502     0.95600
Al260      Al  0.63584473  0.69382802  0.62178027     1.55600
O261        O  0.53638192  0.73215820  0.66058744    -0.76200
C262        C  0.62072964  0.61809743  0.62513445     0.99700
C263        C  0.60081997  0.70920992  0.56381218     0.94600
O264        O  0.57986814  0.72874697  0.57894714    -0.81500
O265        O  0.28031944  0.54989580  0.41211760    -0.81000
C266        C  0.32740467  0.62558613  0.30466672     0.98400
O267        O  0.32288194  0.63797985  0.33203911    -0.70100
O268        O  0.25991826  0.62676390  0.35322420    -0.73700
Al269      Al  0.30473221  0.61761213  0.36996883     1.49000
C270        C  0.23211401  0.61057501  0.35963671     0.93600
O271        O  0.25577701  0.53495963  0.32419940    -0.79900
O272        O  0.35119965  0.52158533  0.35863889    -0.73500
Al273      Al  0.26978110  0.54399239  0.36781750     1.90100
O274        O  0.30912988  0.52788936  0.30591499    -0.72500
O275        O  0.37467563  0.58551126  0.34906866    -0.72400
O276        O  0.32808339  0.59298637  0.29994027    -0.78000
O277        O  0.35037008  0.61465402  0.38804101    -0.76200
O278        O  0.30423873  0.57325264  0.35626791    -1.12400
O279        O  0.28699900  0.60699780  0.41105755    -0.71600
C280        C  0.28339130  0.57886918  0.42657952     0.99200
C281        C  0.27642763  0.52542063  0.30226884     0.95600
Al282      Al  0.33791147  0.55820903  0.33071123     1.55600
O283        O  0.23312314  0.57924643  0.36958301    -0.76200
C284        C  0.37728711  0.60530227  0.37295376     0.99700
C285        C  0.33134719  0.49719873  0.36792467     0.94600
O286        O  0.29853455  0.50211466  0.36897299    -0.81500
O287        O  0.30122534  0.51872779  0.61141860    -0.81000
C288        C  0.31307093  0.64276475  0.68415114     0.98400
O289        O  0.33540346  0.61826177  0.68347298    -0.70100
O290        O  0.30363939  0.55937098  0.69458240    -0.73700
Al291      Al  0.33483600  0.57364133  0.66252304     1.49000
C292        C  0.27826694  0.53842414  0.69247309     0.93600
O293        O  0.23020988  0.58309807  0.63663088    -0.79900
O294        O  0.30467071  0.61149323  0.57739538    -0.73500
Al295      Al  0.26825007  0.55327000  0.62453423     1.90100
O296        O  0.24996067  0.63094858  0.61426867    -0.72500
O297        O  0.34895302  0.63708162  0.62026650    -0.72400
O298        O  0.29300291  0.64843397  0.66077193    -0.78000
O299        O  0.37064095  0.58635686  0.63369102    -0.76200
O300        O  0.30077519  0.58472844  0.63548177    -1.12400
O301        O  0.34118443  0.52671311  0.64805769    -0.71600
C302        C  0.32800772  0.50828114  0.62625275     0.99200
C303        C  0.22532030  0.61380294  0.62650331     0.95600
Al304      Al  0.29929403  0.62823664  0.61948211     1.55600
O305        O  0.26423560  0.53216090  0.66584597    -0.76200
C306        C  0.37491668  0.61675524  0.62267753     0.99700
C307        C  0.28577790  0.58832344  0.56428219     0.94600
O308        O  0.26677079  0.56784589  0.58067834    -0.81500
O309        O  0.44729726  0.26504669  0.41098535    -0.81000
C310        C  0.36993149  0.30409920  0.30209202     0.98400
O311        O  0.35790419  0.30151521  0.32983955    -0.70100
O312        O  0.37142217  0.23998965  0.35309365    -0.73700
Al313      Al  0.37901500  0.28535554  0.36832704     1.49000
C314        C  0.38871884  0.21277067  0.35928929     0.93600
O315        O  0.46362191  0.23678619  0.32476831    -0.79900
O316        O  0.47238751  0.33441961  0.35414747    -0.73500
Al317      Al  0.45363075  0.25263764  0.36739203     1.90100
O318        O  0.46823757  0.28923731  0.30369182    -0.72500
O319        O  0.40795438  0.35486018  0.34376160    -0.72400
O320        O  0.40242092  0.30452833  0.29708078    -0.78000
O321        O  0.38105814  0.33182869  0.38477508    -0.76200
O322        O  0.42318425  0.28541317  0.35438105    -1.12400
O323        O  0.39010771  0.26935530  0.40994394    -0.71600
C324        C  0.41843360  0.26819175  0.42539256     0.99200
C325        C  0.47258205  0.25652334  0.30197765     0.95600
Al326      Al  0.43665330  0.31802225  0.32706026     1.55600
O327        O  0.41968477  0.21479243  0.36997343    -0.76200
C328        C  0.38935213  0.35826417  0.36836064     0.99700
C329        C  0.49741639  0.31627045  0.36475544     0.94600
O330        O  0.49406139  0.28331917  0.36757354    -0.81500
O331        O  0.47769526  0.29343563  0.61030551    -0.81000
C332        C  0.35246898  0.30332260  0.68180491     0.98400
O333        O  0.37825895  0.32395641  0.68312435    -0.70100
O334        O  0.43497365  0.28889534  0.69397789    -0.73700
Al335      Al  0.42310708  0.32313438  0.66355095     1.49000
C336        C  0.45708537  0.26473565  0.69061024     0.93600
O337        O  0.41427517  0.22105180  0.63415776    -0.79900
O338        O  0.38746508  0.29733095  0.57582456    -0.73500
Al339      Al  0.44389871  0.25920891  0.62261565     1.90100
O340        O  0.36627704  0.24130962  0.61210486    -0.72500
O341        O  0.36224545  0.34115007  0.61917554    -0.72400
O342        O  0.34731352  0.28419870  0.65780450    -0.78000
O343        O  0.41209806  0.36159009  0.63661959    -0.76200
O344        O  0.41230721  0.29123031  0.63445670    -1.12400
O345        O  0.47055977  0.32895073  0.65066885    -0.71600
C346        C  0.48856533  0.31830464  0.62746003     0.99200
C347        C  0.38322648  0.21660870  0.62485942     0.95600
Al348      Al  0.36947510  0.29104586  0.61747257     1.55600
O349        O  0.46521763  0.25388256  0.66332381    -0.76200
C350        C  0.38228448  0.36689606  0.62460375     0.99700
C351        C  0.40999767  0.27787581  0.56265343     0.94600
O352        O  0.42952461  0.25807942  0.57907649    -0.81500
O353        O  0.94204275  0.21795087  0.57875535    -0.81000
C354        C  0.87867656  0.17237432  0.69218700     0.98400
O355        O  0.86297557  0.17578641  0.66584630    -0.70100
O356        O  0.86876114  0.23775695  0.64066444    -0.73700
Al357      Al  0.87836810  0.19233235  0.62500891     1.49000
C358        C  0.88331679  0.26580051  0.63219224     0.93600
O359        O  0.95992375  0.24549310  0.66384297    -0.79900
O360        O  0.97592189  0.14975782  0.62860234    -0.73500
Al361      Al  0.95005948  0.23012224  0.62149149     1.90100
O362        O  0.97472662  0.19314979  0.68120501    -0.72500
O363        O  0.91485017  0.12374872  0.64516304    -0.72400
O364        O  0.91163416  0.17127488  0.69338130    -0.78000
O365        O  0.88116107  0.14606215  0.60836549    -0.76200
O366        O  0.92352791  0.19471996  0.63533306    -1.12400
O367        O  0.88529965  0.20835007  0.58197848    -0.71600
C368        C  0.91269959  0.21317766  0.56550543     0.99200
C369        C  0.97350100  0.22605086  0.68483493     0.95600
Al370      Al  0.94271584  0.16212632  0.65991130     1.55600
O371        O  0.91358369  0.26519790  0.62018161    -0.76200
C372        C  0.89300805  0.11972772  0.62292987     0.99700
C373        C  0.99897956  0.17052287  0.61829814     0.94600
O374        O  0.99337074  0.20332849  0.61878311    -0.81500
O375        O  0.98265522  0.19258532  0.38652675    -0.81000
C376        C  0.86584128  0.17399066  0.30515346     0.98400
O377        O  0.89212908  0.15396168  0.30688253    -0.70100
O378        O  0.94950944  0.18910226  0.29997312    -0.73700
Al379      Al  0.93434260  0.15660022  0.33090908     1.49000
C380        C  0.97007726  0.21442285  0.30408308     0.93600
O381        O  0.91727580  0.26044871  0.35494233    -0.79900
O382        O  0.88879845  0.18518626  0.41394605    -0.73500
Al383      Al  0.94796964  0.22412630  0.37006416     1.90100
O384        O  0.86871411  0.23806365  0.37392553    -0.72500
O385        O  0.86949263  0.13842942  0.37068909    -0.72400
O386        O  0.85660355  0.19251776  0.32851480    -0.78000
O387        O  0.92132707  0.11912053  0.35818811    -0.76200
O388        O  0.91924647  0.18972319  0.35725381    -1.12400
O389        O  0.97975154  0.15277537  0.34901580    -0.71600
C390        C  0.99541211  0.16630430  0.37238540     0.99200
C391        C  0.88541276  0.26359032  0.36243959     0.95600
Al392      Al  0.87477275  0.18857447  0.37072247     1.55600
O393        O  0.97346554  0.22851352  0.33099523    -0.76200
C394        C  0.89086678  0.11333279  0.36828859     0.99700
C395        C  0.90900470  0.20649614  0.42792626     0.94600
O396        O  0.92915581  0.22632395  0.41214975    -0.81500
O397        O  0.06240716  0.77122593  0.57771050    -0.81000
C398        C  0.13692569  0.80848587  0.68852140     0.98400
O399        O  0.14942796  0.80762560  0.66084881    -0.70100
O400        O  0.13861397  0.74612816  0.63585517    -0.73700
Al401      Al  0.12941305  0.79206352  0.62168007     1.49000
C402        C  0.12223128  0.71885252  0.62795418     0.93600
O403        O  0.04657748  0.73883497  0.66288799    -0.79900
O404        O  0.03392200  0.83738650  0.63633410    -0.73500
Al405      Al  0.05614429  0.75691053  0.62085966     1.90100
O406        O  0.03933269  0.79009661  0.68553484    -0.72500
O407        O  0.09771938  0.85963354  0.64769454    -0.72400
O408        O  0.10436862  0.80784002  0.69307678    -0.78000
O409        O  0.12551384  0.83890777  0.60631043    -0.76200
O410        O  0.08513693  0.79013437  0.63514110    -1.12400
O411        O  0.11944849  0.77711336  0.57945131    -0.71600
C412        C  0.09143044  0.77480315  0.56361750     0.99200
C413        C  0.03613718  0.75715046  0.68605442     0.95600
Al414      Al  0.07010165  0.82117243  0.66324127     1.55600
O415        O  0.09134626  0.72063507  0.61712022    -0.76200
C416        C  0.11610834  0.86459373  0.62311238     0.99700
C417        C  0.00982206  0.81858667  0.62494490     0.94600
O418        O  0.01461150  0.78593781  0.62134637    -0.81500
O419        O  0.03256593  0.79106612  0.37895909    -0.81000
C420        C  0.15654556  0.80175546  0.30551674     0.98400
O421        O  0.13061400  0.82229405  0.30446658    -0.70100
O422        O  0.07315043  0.78760115  0.29471750    -0.73700
Al423      Al  0.08611010  0.82167255  0.32504852     1.49000
C424        C  0.05118587  0.76338064  0.29868150     0.93600
O425        O  0.09649178  0.71927357  0.35492181    -0.79900
O426        O  0.12368834  0.79614250  0.41224816    -0.73500
Al427      Al  0.06663350  0.75734005  0.36648685     1.90100
O428        O  0.14453935  0.74022552  0.37621126    -0.72500
O429        O  0.14799416  0.83958810  0.36831747    -0.72400
O430        O  0.16236809  0.78294843  0.32969009    -0.78000
O431        O  0.09785387  0.86006307  0.35166900    -0.76200
O432        O  0.09770539  0.78966255  0.35400635    -1.12400
O433        O  0.03887880  0.82763587  0.33906004    -0.71600
C434        C  0.02122002  0.81610338  0.36217361     0.99200
C435        C  0.12763163  0.71516805  0.36416088     0.95600
Al436      Al  0.14092182  0.78974692  0.37036671     1.55600
O437        O  0.04455988  0.75178135  0.32609768    -0.76200
C438        C  0.12780031  0.86526912  0.36337860     0.99700
C439        C  0.10132310  0.77688015  0.42594765     0.94600
O440        O  0.08170207  0.75671852  0.40999178    -0.81500
O441        O  0.77930389  0.93028148  0.57906649    -0.81000
C442        C  0.81355054  0.86139714  0.69325932     0.98400
O443        O  0.81195085  0.84683887  0.66631861    -0.70100
O444        O  0.75170463  0.85785616  0.63991765    -0.73700
Al445      Al  0.79776481  0.86452029  0.62557596     1.49000
C446        C  0.72499561  0.87451153  0.63117354     0.93600
O447        O  0.74870177  0.95031726  0.66341486    -0.79900
O448        O  0.84735166  0.95753136  0.63396810    -0.73500
Al449      Al  0.76560839  0.93895353  0.62164340     1.90100
O450        O  0.80101205  0.95934156  0.68351608    -0.72500
O451        O  0.86669680  0.89460434  0.65028213    -0.72400
O452        O  0.81522013  0.89425460  0.69563699    -0.78000
O453        O  0.84459646  0.86543102  0.61025822    -0.76200
O454        O  0.79780196  0.90946453  0.63677146    -1.12400
O455        O  0.78356451  0.87299850  0.58241931    -0.71600
C456        C  0.78240075  0.90070454  0.56580980     0.99200
C457        C  0.76816334  0.96225335  0.68517252     0.95600
Al458      Al  0.82992023  0.92510187  0.66358413     1.55600
O459        O  0.72779025  0.90486004  0.61915980    -0.76200
C460        C  0.87069694  0.87512837  0.62636178     0.99700
C461        C  0.82969520  0.98271334  0.62306721     0.94600
O462        O  0.79659865  0.97984361  0.62054997    -0.81500
O463        O  0.80860551  0.96260948  0.38496203    -0.81000
C464        C  0.81480266  0.84285083  0.30474911     0.98400
O465        O  0.83443516  0.86936636  0.30401261    -0.70100
O466        O  0.79941232  0.92689477  0.29815479    -0.73700
Al467      Al  0.83483958  0.91228627  0.32667829     1.49000
C468        C  0.77742888  0.95055865  0.30390137     0.93600
O469        O  0.73418746  0.90285458  0.35768690    -0.79900
O470        O  0.81024888  0.87024658  0.41390720    -0.73500
Al471      Al  0.77306328  0.93090951  0.37071647     1.90100
O472        O  0.75453386  0.85256018  0.37564536    -0.72500
O473        O  0.85399164  0.84877650  0.36880130    -0.72400
O474        O  0.79734007  0.83548950  0.32933124    -0.78000
O475        O  0.87412177  0.89885551  0.35133246    -0.76200
O476        O  0.80413755  0.89957994  0.35618266    -1.12400
O477        O  0.84198768  0.95841363  0.34273056    -0.71600
C478        C  0.83313546  0.97430347  0.36776668     0.99200
C479        C  0.72977319  0.87096869  0.36476980     0.95600
Al480      Al  0.80406760  0.85553174  0.37082754     1.55600
O481        O  0.76778754  0.95674516  0.33194824    -0.76200
C482        C  0.87953964  0.86895196  0.36313368     0.99700
C483        C  0.79120291  0.89220932  0.42830207     0.94600
O484        O  0.77170221  0.91296450  0.41297347    -0.81500
O485        O  0.23105461  0.05269843  0.57813326    -0.81000
C486        C  0.18581207  0.12796377  0.68565825     0.98400
O487        O  0.19065099  0.14125677  0.65850964    -0.70100
O488        O  0.25329493  0.12782936  0.63788217    -0.73700
Al489      Al  0.20884870  0.12115011  0.62009266     1.49000
C490        C  0.28060689  0.11096136  0.63139870     0.93600
O491        O  0.25325411  0.03679675  0.66538619    -0.79900
O492        O  0.15764816  0.02884678  0.62855739    -0.73500
Al493      Al  0.24042310  0.04612388  0.62196129     1.90100
O494        O  0.19923839  0.02976503  0.68194016    -0.72500
O495        O  0.13748253  0.09283723  0.64010578    -0.72400
O496        O  0.18447481  0.09531706  0.68951958    -0.78000
O497        O  0.16355082  0.12040390  0.60103083    -0.76200
O498        O  0.20718499  0.07672892  0.63308881    -1.12400
O499        O  0.22725690  0.11018571  0.57898610    -0.71600
C500        C  0.23028327  0.08178739  0.56367834     0.99200
C501        C  0.23181503  0.02745826  0.68664328     0.95600
Al502      Al  0.17256023  0.06281091  0.65786836     1.55600
O503        O  0.27870401  0.07993192  0.62079681    -0.76200
C504        C  0.13602100  0.11214270  0.61575045     0.99700
C505        C  0.17598205  0.00294528  0.62045168     0.94600
O506        O  0.20921165  0.00544823  0.62030752    -0.81500
O507        O  0.20690506  0.01759002  0.38122096    -0.81000
C508        C  0.19388575  0.14118868  0.30662343     0.98400
O509        O  0.17164798  0.11680322  0.30859446    -0.70100
O510        O  0.20557697  0.05882857  0.29668980    -0.73700
Al511      Al  0.17432617  0.07201403  0.32921844     1.49000
C512        C  0.22957829  0.03625737  0.29905035     0.93600
O513        O  0.27934463  0.07867385  0.35362132    -0.79900
O514        O  0.20888501  0.11119072  0.41360395    -0.73500
Al515      Al  0.24076700  0.05062918  0.36677809     1.90100
O516        O  0.26101042  0.12883367  0.37280185    -0.72500
O517        O  0.16138732  0.13456560  0.37276099    -0.72400
O518        O  0.21526928  0.14659729  0.32900301    -0.78000
O519        O  0.13935286  0.08387588  0.35909736    -0.76200
O520        O  0.20891710  0.08292154  0.35578067    -1.12400
O521        O  0.16885432  0.02471077  0.34282641    -0.71600
C522        C  0.18114236  0.00663245  0.36530132     0.99200
C523        C  0.28497316  0.10999472  0.36146963     0.95600
Al524      Al  0.21140933  0.12661999  0.37086827     1.55600
O525        O  0.24285668  0.02885731  0.32579638    -0.76200
C526        C  0.13544362  0.11394419  0.37097256     0.99700
C527        C  0.22759531  0.08776074  0.42648915     0.94600
O528        O  0.24444127  0.06580761  0.40997519    -0.81500
O529        O  0.80324221  0.01254933  0.11176426    -0.81000
C530        C  0.82394435  0.13601296  0.18431865     0.98400
O531        O  0.84439818  0.11005865  0.18312159    -0.70100
O532        O  0.80933425  0.05362673  0.19507460    -0.73700
Al533      Al  0.84053315  0.06588945  0.16243848     1.49000
C534        C  0.78311066  0.03369032  0.19366153     0.93600
O535        O  0.73570816  0.07954847  0.13951588    -0.79900
O536        O  0.80848480  0.10533333  0.07800423    -0.73500
Al537      Al  0.77198562  0.04841603  0.12611733     1.90100
O538        O  0.75682094  0.12711486  0.11752299    -0.72500
O539        O  0.85660729  0.12838466  0.11944809    -0.72400
O540        O  0.80290832  0.14254353  0.16188461    -0.78000
O541        O  0.87648791  0.07689114  0.13289439    -0.76200
O542        O  0.80626785  0.07852047  0.13620965    -1.12400
O543        O  0.84378377  0.01896076  0.14815575    -0.71600
C544        C  0.82973219  0.00106193  0.12648526     0.99200
C545        C  0.73178769  0.11057331  0.12985007     0.95600
Al546      Al  0.80623042  0.12205707  0.12042510     1.55600
O547        O  0.76862493  0.02709358  0.16733254    -0.76200
C548        C  0.88205554  0.10739113  0.12244911     0.99700
C549        C  0.78711321  0.08395813  0.06546482     0.94600
O550        O  0.76875289  0.06376751  0.08267746    -0.81500
O551        O  0.77409048  0.04798316  0.91425976    -0.81000
C552        C  0.81537173  0.12344305  0.80463625     0.98400
O553        O  0.81099427  0.13635411  0.83190155    -0.70100
O554        O  0.74857986  0.12247497  0.85379422    -0.73700
Al555      Al  0.79382566  0.11612478  0.87058393     1.49000
C556        C  0.72181716  0.10525488  0.86148313     0.93600
O557        O  0.74787046  0.03114182  0.82777980    -0.79900
O558        O  0.84492403  0.02292289  0.86021467    -0.73500
Al559      Al  0.76266835  0.04087944  0.87061621     1.90100
O560        O  0.80097113  0.02512344  0.80859001    -0.72500
O561        O  0.86426006  0.08740424  0.84881300    -0.72400
O562        O  0.81595420  0.09079443  0.80052763    -0.78000
O563        O  0.83973833  0.11539105  0.88840656    -0.76200
O564        O  0.79522011  0.07153396  0.85787362    -1.12400
O565        O  0.77686296  0.10560064  0.91224490    -0.71600
C566        C  0.77566176  0.07740632  0.92809978     0.99200
C567        C  0.76823756  0.02222043  0.80554576     0.95600
Al568      Al  0.82874311  0.05769470  0.83182135     1.55600
O569        O  0.72452607  0.07455132  0.87276830    -0.76200
C570        C  0.86672532  0.10671532  0.87306125     0.99700
C571        C  0.82689509  0.99716663  0.86940763     0.94600
O572        O  0.79380506  0.00014716  0.87135054    -0.81500
O573        O  0.97938148  0.78989189  0.11059892    -0.81000
C574        C  0.85602255  0.79713297  0.18673537     0.98400
O575        O  0.88178612  0.81778679  0.18689084    -0.70100
O576        O  0.93970477  0.78332605  0.19605226    -0.73700
Al577      Al  0.92580357  0.81730581  0.16583733     1.49000
C578        C  0.96323407  0.76073512  0.19153649     0.93600
O579        O  0.91905534  0.71487791  0.13642482    -0.79900
O580        O  0.88687559  0.78988546  0.07933333    -0.73500
Al581      Al  0.94685822  0.75432015  0.12410187     1.90100
O582        O  0.86904468  0.73398346  0.11727035    -0.72500
O583        O  0.86271506  0.83361110  0.12306608    -0.72400
O584        O  0.85036895  0.77724182  0.16327383    -0.78000
O585        O  0.91296309  0.85488335  0.13881190    -0.76200
O586        O  0.91460536  0.78511743  0.13722778    -1.12400
O587        O  0.97269090  0.82416539  0.15173627    -0.71600
C588        C  0.99044132  0.81453166  0.12805163     0.99200
C589        C  0.88779746  0.70945937  0.12805600     0.95600
Al590      Al  0.87096328  0.78372252  0.12187989     1.55600
O591        O  0.97023243  0.74995926  0.16395703    -0.76200
C592        C  0.88279071  0.85957643  0.12731632     0.99700
C593        C  0.90994052  0.77179619  0.06533193     0.94600
O594        O  0.93061909  0.75266331  0.08118742    -0.81500
O595        O  0.94400976  0.76156599  0.91253075    -0.81000
C596        C  0.86667919  0.80293119  0.80435730     0.98400
O597        O  0.85514147  0.80173679  0.83239242    -0.70100
O598        O  0.86545932  0.74075985  0.85786526    -0.73700
Al599      Al  0.87615270  0.78636798  0.87115226     1.49000
C600        C  0.88188772  0.71267427  0.86260538     0.93600
O601        O  0.95882253  0.73348859  0.82607249    -0.79900
O602        O  0.97029771  0.83106903  0.85465100    -0.73500
Al603      Al  0.94927576  0.74972615  0.86878530     1.90100
O604        O  0.96502378  0.78557836  0.80495781    -0.72500
O605        O  0.90650878  0.85367509  0.84354584    -0.72400
O606        O  0.89907849  0.80187605  0.79872419    -0.78000
O607        O  0.88081524  0.83336748  0.88608432    -0.76200
O608        O  0.91989564  0.78371387  0.85613892    -1.12400
O609        O  0.88754369  0.77189577  0.91306330    -0.71600
C610        C  0.91611091  0.76765792  0.92761368     0.99200
C611        C  0.96893635  0.75285962  0.80345732     0.95600
Al612      Al  0.93406916  0.81528249  0.82798493     1.55600
O613        O  0.91375271  0.71309341  0.87116381    -0.76200
C614        C  0.88882296  0.85886180  0.86841990     0.99700
C615        C  0.99469980  0.81258791  0.86604619     0.94600
O616        O  0.99070048  0.77964058  0.86913592    -0.81500
O617        O  0.21002235  0.96349112  0.10892898    -0.81000
C618        C  0.19526945  0.84242766  0.18619959     0.98400
O619        O  0.17559696  0.86910178  0.18678125    -0.70100
O620        O  0.21038349  0.92654217  0.19489880    -0.73700
Al621      Al  0.17671280  0.91275617  0.16446025     1.49000
C622        C  0.23425916  0.94868914  0.19060969     0.93600
O623        O  0.27898065  0.89795378  0.13779536    -0.79900
O624        O  0.20178473  0.87302401  0.07860444    -0.73500
Al625      Al  0.24234626  0.92902379  0.12391969     1.90100
O626        O  0.25669443  0.85107020  0.11533813    -0.72500
O627        O  0.15700303  0.84965133  0.12255459    -0.72400
O628        O  0.21313635  0.83501086  0.16186443    -0.78000
O629        O  0.13811497  0.90064198  0.13818764    -0.76200
O630        O  0.20862510  0.89939266  0.13642208    -1.12400
O631        O  0.17196769  0.95925033  0.14786327    -0.71600
C632        C  0.18427185  0.97563520  0.12419911     0.99200
C633        C  0.28250271  0.86719840  0.12710611     0.95600
Al634      Al  0.20723405  0.85589075  0.12079270     1.55600
O635        O  0.24705245  0.95359142  0.16338659    -0.76200
C636        C  0.13186874  0.87048448  0.12744694     0.99700
C637        C  0.22304615  0.89357836  0.06492461     0.94600
O638        O  0.24421727  0.91198412  0.08104285    -0.81500
O639        O  0.22758022  0.93240316  0.91355453    -0.81000
C640        C  0.18610854  0.86353860  0.80183923     0.98400
O641        O  0.18815092  0.84880676  0.82871313    -0.70100
O642        O  0.24924352  0.85794735  0.85354848    -0.73700
Al643      Al  0.20376170  0.86635106  0.86885625     1.49000
C644        C  0.27672143  0.87408101  0.86084091     0.93600
O645        O  0.25270843  0.95061130  0.82710052    -0.79900
O646        O  0.15605732  0.96062191  0.86196146    -0.73500
Al647      Al  0.23829779  0.94008669  0.87003070     1.90100
O648        O  0.19936734  0.96140517  0.81037360    -0.72500
O649        O  0.13438994  0.89751088  0.84607876    -0.72400
O650        O  0.18382717  0.89638655  0.79933751    -0.78000
O651        O  0.15730818  0.86783475  0.88535936    -0.76200
O652        O  0.20433755  0.91124216  0.85712000    -1.12400
O653        O  0.21951235  0.87536366  0.91122964    -0.71600
C654        C  0.22385738  0.90311597  0.92727159     0.99200
C655        C  0.23206414  0.96383147  0.80683948     0.95600
Al656      Al  0.17111964  0.92756567  0.83165838     1.55600
O657        O  0.27533351  0.90515703  0.87125793    -0.76200
C658        C  0.13090975  0.87700360  0.86938950     0.99700
C659        C  0.17522508  0.98551083  0.87137466     0.94600
O660        O  0.20834803  0.98167512  0.87215129    -0.81500
O661        O  0.03312738  0.19108948  0.11089979    -0.81000
C662        C  0.15788563  0.17582135  0.18301335     0.98400
O663        O  0.13361769  0.15331797  0.18130847    -0.70100
O664        O  0.07592705  0.18604126  0.19411853    -0.73700
Al665      Al  0.08855509  0.15585555  0.16100811     1.49000
C666        C  0.05448825  0.21105624  0.19329838     0.93600
O667        O  0.09797310  0.26129610  0.13859617    -0.79900
O668        O  0.12532304  0.18930270  0.07645563    -0.73500
Al669      Al  0.06794670  0.22380204  0.12530983     1.90100
O670        O  0.14569152  0.24227357  0.11555350    -0.72500
O671        O  0.15086166  0.14210890  0.11777598    -0.72400
O672        O  0.16346304  0.19679410  0.16024983    -0.78000
O673        O  0.09977465  0.12119675  0.13075798    -0.76200
O674        O  0.09946705  0.19076921  0.13494326    -1.12400
O675        O  0.04126945  0.15092676  0.14727213    -0.71600
C676        C  0.02273609  0.16400276  0.12543047     0.99200
C677        C  0.12856956  0.26658805  0.12844887     0.95600
Al678      Al  0.14268855  0.19244836  0.11873735     1.55600
O679        O  0.04707914  0.22585725  0.16715136    -0.76200
C680        C  0.13017692  0.11628813  0.12022937     0.99700
C681        C  0.10268575  0.20951174  0.06406496     0.94600
O682        O  0.08248020  0.22764280  0.08149068    -0.81500
O683        O  0.05926195  0.21762736  0.91392581    -0.81000
C684        C  0.12327682  0.17430789  0.79927356     0.98400
O685        O  0.13909777  0.17783417  0.82553214    -0.70100
O686        O  0.13025473  0.23966138  0.84956216    -0.73700
Al687      Al  0.12314553  0.19472021  0.86625536     1.49000
C688        C  0.11544345  0.26731874  0.85842716     0.93600
O689        O  0.03904340  0.24509083  0.82878555    -0.79900
O690        O  0.02793750  0.14852800  0.86300287    -0.73500
Al691      Al  0.05011115  0.22966239  0.87091486     1.90100
O692        O  0.02686256  0.19245861  0.81062691    -0.72500
O693        O  0.08962048  0.12485937  0.84678131    -0.72400
O694        O  0.09038731  0.17298706  0.79839111    -0.78000
O695        O  0.12212095  0.14893217  0.88367876    -0.76200
O696        O  0.07788223  0.19541349  0.85651971    -1.12400
O697        O  0.11633649  0.21140474  0.90904090    -0.71600
C698        C  0.08934687  0.21476476  0.92634907     0.99200
C699        C  0.02661510  0.22547944  0.80741369     0.95600
Al700      Al  0.06008675  0.16236681  0.83186687     1.55600
O701        O  0.08572473  0.26613590  0.87167212    -0.76200
C702        C  0.11153421  0.12208654  0.86919983     0.99700
C703        C  0.00357683  0.16776149  0.87296150     0.94600
O704        O  0.00774124  0.20083467  0.87362892    -0.81500
C705        C  0.12287996  0.19956928  0.97592398     0.24400
C706        C  0.09331295  0.21502027  0.96151799    -0.23700
C707        C  0.06751058  0.23005544  0.98112192     0.19300
C708        C  0.07081272  0.22891746  0.01430540     0.24400
C709        C  0.09982603  0.21227146  0.02877412    -0.23600
C710        C  0.12605105  0.19812361  0.00903592     0.19300
F711        F  0.15508502  0.18289875  0.02165131    -0.13600
F712        F  0.14855162  0.18492465  0.95800411    -0.15900
F713        F  0.04523286  0.24383681  0.03215154    -0.15900
F714        F  0.03914201  0.24627230  0.96823490    -0.13600
C715        C  0.12182869  0.02382438  0.87718576     0.24400
C716        C  0.15869685  0.02021184  0.87803476    -0.23700
C717        C  0.17924291  0.05083287  0.88081780     0.19300
C718        C  0.16348894  0.08406016  0.88030500     0.24400
C719        C  0.12700684  0.08742362  0.87651399    -0.23600
C720        C  0.10627692  0.05705532  0.87588646     0.19300
F721        F  0.07090782  0.05955269  0.87310143    -0.13600
F722        F  0.10065525  0.99521158  0.87613906    -0.15900
F723        F  0.18425393  0.11300195  0.88078863    -0.15900
F724        F  0.21474896  0.04892594  0.88192393    -0.13600
C725        C  0.17693702  0.07253930  0.10429813     0.24400
C726        C  0.14227977  0.07968075  0.11404008    -0.23700
C727        C  0.12035599  0.05107419  0.12180134     0.19300
C728        C  0.13359763  0.01694693  0.12283693     0.24400
C729        C  0.16896507  0.01026271  0.11594877    -0.23600
C730        C  0.19010836  0.03810966  0.10515264     0.19300
F731        F  0.22426035  0.03252319  0.09771921    -0.13600
F732        F  0.19874335  0.09898170  0.09553723    -0.15900
F733        F  0.11196097  0.99044919  0.13186178    -0.15900
F734        F  0.08642180  0.05606996  0.13032647    -0.13600
C735        C  0.23746895  0.92597476  0.01443423     0.24400
C736        C  0.22381187  0.89601181  0.02974986    -0.23700
C737        C  0.21092587  0.86831370  0.01106970     0.19300
C738        C  0.21113303  0.87065836  0.97794179     0.24400
C739        C  0.22430767  0.90076212  0.96252216    -0.23600
C740        C  0.23756173  0.92841553  0.98121465     0.19300
F741        F  0.25088834  0.95777575  0.96745711    -0.13600
F742        F  0.25027382  0.95334156  0.03154684    -0.15900
F743        F  0.19777603  0.84341063  0.96105162    -0.15900
F744        F  0.19860802  0.83852198  0.02480925    -0.13600
C745        C  0.03272197  0.86640656  0.86874424     0.24400
C746        C  0.02885031  0.82988732  0.87347034    -0.23700
C747        C  0.05875521  0.81022812  0.88209225     0.19300
C748        C  0.09190758  0.82621215  0.88340375     0.24400
C749        C  0.09583496  0.86199357  0.87586265    -0.23600
C750        C  0.06577753  0.88207600  0.86961013     0.19300
F751        F  0.06852714  0.91687096  0.86302828    -0.13600
F752        F  0.00475161  0.88703663  0.86167400    -0.15900
F753        F  0.12047815  0.80603518  0.88945962    -0.15900
F754        F  0.05641131  0.77518664  0.88755064    -0.13600
C755        C  0.05223723  0.81425083  0.10600814     0.24400
C756        C  0.02527560  0.83141980  0.12273189    -0.23700
C757        C  0.03316694  0.86345416  0.13789996     0.19300
C758        C  0.06728924  0.87683133  0.13805019     0.24400
C759        C  0.09479894  0.85870023  0.12294769    -0.23600
C760        C  0.08662070  0.82763802  0.10624508     0.19300
F761        F  0.11209049  0.80951357  0.09089864    -0.13600
F762        F  0.04588788  0.78345808  0.09088300    -0.15900
F763        F  0.07355356  0.90664066  0.15476705    -0.15900
F764        F  0.00800524  0.88152834  0.15375566    -0.13600
C765        C  0.93869162  0.75216509  0.01438993     0.24400
C766        C  0.91280630  0.77229796  0.03002439    -0.23700
C767        C  0.88982429  0.79273473  0.01142357     0.19300
C768        C  0.89142941  0.79157716  0.97823818     0.24400
C769        C  0.91621167  0.77021543  0.96274724    -0.23600
C770        C  0.94043211  0.75131688  0.98116862     0.19300
F771        F  0.96525734  0.73114854  0.96707775    -0.13600
F772        F  0.96237259  0.73294197  0.03109916    -0.15900
F773        F  0.86897903  0.81195966  0.96123298    -0.15900
F774        F  0.86566074  0.81396851  0.02518506    -0.13600
C775        C  0.87958429  0.95761359  0.86471524     0.24400
C776        C  0.84469233  0.96270622  0.87499308    -0.23700
C777        C  0.82639306  0.93358176  0.88739039     0.19300
C778        C  0.84171571  0.90002418  0.88751929     0.24400
C779        C  0.87550442  0.89477934  0.87496255    -0.23600
C780        C  0.89459403  0.92413074  0.86453858     0.19300
F781        F  0.92760579  0.92026221  0.85304186    -0.13600
F782        F  0.89883499  0.98464627  0.85297388    -0.15900
F783        F  0.82245107  0.87230061  0.89779969    -0.15900
F784        F  0.79312027  0.93718793  0.89825409    -0.13600
C785        C  0.93127435  0.09988609  0.87546341     0.24400
C786        C  0.90166480  0.12058886  0.88145634    -0.23700
C787        C  0.90627348  0.15597780  0.88997617     0.19300
C788        C  0.93982597  0.17117203  0.88944629     0.24400
C789        C  0.96927667  0.15105604  0.88063951    -0.23600
C790        C  0.96462474  0.11474004  0.87523348     0.19300
F791        F  0.99199468  0.09364314  0.86753707    -0.13600
F792        F  0.92773860  0.06538196  0.86802804    -0.15900
F793        F  0.94306315  0.20594702  0.89571585    -0.15900
F794        F  0.87808574  0.17660896  0.89607530    -0.13600
C795        C  0.89273855  0.92471053  0.12605966     0.24400
C796        C  0.87014247  0.89595952  0.12114913    -0.23700
C797        C  0.83465740  0.90275790  0.11366735     0.19300
C798        C  0.82184643  0.93728418  0.11302134     0.24400
C799        C  0.84408632  0.96562619  0.12017316    -0.23600
C800        C  0.87980205  0.95896366  0.12589876     0.19300
F801        F  0.90217027  0.98566481  0.13265615    -0.13600
F802        F  0.92727024  0.91982551  0.13254501    -0.15900
F803        F  0.78711051  0.94267793  0.10795238    -0.15900
F804        F  0.81173791  0.87603258  0.10880902    -0.13600
C805        C  0.92595043  0.15340141  0.10459283     0.24400
C806        C  0.91883105  0.11959268  0.11684312    -0.23700
C807        C  0.94734186  0.09908214  0.12738597     0.19300
C808        C  0.98126910  0.11294550  0.12826403     0.24400
C809        C  0.98796678  0.14769827  0.11848883    -0.23600
C810        C  0.96014321  0.16723745  0.10531012     0.19300
F811        F  0.96548172  0.20053083  0.09485355    -0.13600
F812        F  0.89964343  0.17376783  0.09304887    -0.15900
F813        F  0.00749354  0.09245484  0.13981753    -0.15900
F814        F  0.94237232  0.06604616  0.13864983    -0.13600
C815        C  0.76281391  0.05621696  0.01554650     0.24400
C816        C  0.78299286  0.08274247  0.03028749    -0.23700
C817        C  0.79892404  0.10836430  0.01094336     0.19300
C818        C  0.79593945  0.10677213  0.97788976     0.24400
C819        C  0.77701795  0.07952244  0.96320692    -0.23600
C820        C  0.76009740  0.05453596  0.98235863     0.19300
F821        F  0.74033505  0.02883943  0.96899505    -0.13600
F822        F  0.74570315  0.03169265  0.03309515    -0.15900
F823        F  0.81254809  0.13153308  0.96020468    -0.15900
F824        F  0.81738645  0.13526863  0.02387086    -0.13600
C825        C  0.25158109  0.95907552  0.24700681     0.24400
C826        C  0.24318655  0.97235764  0.21684409    -0.23700
C827        C  0.23560210  0.00815785  0.21333822     0.19300
C828        C  0.23355811  0.02975765  0.23998652     0.24400
C829        C  0.23965471  0.01603552  0.27059292    -0.23600
C830        C  0.25015870  0.98076647  0.27371091     0.19300
F831        F  0.25566855  0.96628496  0.30282328    -0.13600
F832        F  0.25935292  0.92467850  0.25086789    -0.15900
F833        F  0.22302154  0.06341056  0.23591709    -0.15900
F834        F  0.22630455  0.02140028  0.18452524    -0.13600
C835        C  0.16965285  0.18691642  0.27017402     0.24400
C836        C  0.19509977  0.16127600  0.27660871    -0.23700
C837        C  0.21479540  0.14763862  0.25128958     0.19300
C838        C  0.20517043  0.15490591  0.21970776     0.24400
C839        C  0.17742851  0.17805029  0.21326891    -0.23600
C840        C  0.16184989  0.19617970  0.23863741     0.19300
F841        F  0.13657805  0.22037401  0.23271145    -0.13600
F842        F  0.15034107  0.20066360  0.29419008    -0.15900
F843        F  0.22078692  0.13712018  0.19566388    -0.15900
F844        F  0.24104505  0.12455018  0.25726807    -0.13600
C845        C  0.23265870  0.11697432  0.47924662     0.24400
C846        C  0.23017578  0.08604325  0.46138272    -0.23700
C847        C  0.23026452  0.05348856  0.47710169     0.19300
C848        C  0.23109249  0.05192927  0.51030967     0.24400
C849        C  0.23231328  0.08300619  0.52844617    -0.23600
C850        C  0.23403924  0.11553656  0.51239156     0.19300
F851        F  0.23701900  0.14616696  0.52862257    -0.13600
F852        F  0.23444346  0.14867990  0.46454618    -0.15900
F853        F  0.22987863  0.01994971  0.52455562    -0.15900
F854        F  0.22820058  0.02313655  0.46033341    -0.13600
C855        C  0.23197938  0.01792197  0.77498831     0.24400
C856        C  0.24444816  0.98358891  0.77890815    -0.23700
C857        C  0.25951649  0.96622759  0.75276722     0.19300
C858        C  0.25891696  0.98193346  0.72241821     0.24400
C859        C  0.24331120  0.01503577  0.71821654    -0.23600
C860        C  0.23139201  0.03344001  0.74499034     0.19300
F861        F  0.21614740  0.06535554  0.74166647    -0.13600
F862        F  0.21704407  0.03511189  0.79978155    -0.15900
F863        F  0.27011638  0.96344340  0.69682859    -0.15900
F864        F  0.27131605  0.93281894  0.75594999    -0.13600
C865        C  0.19449394  0.14952165  0.74085066     0.24400
C866        C  0.17543224  0.14985162  0.71231517    -0.23700
C867        C  0.14128078  0.16288858  0.71177133     0.19300
C868        C  0.12478824  0.17200325  0.73993726     0.24400
C869        C  0.14283838  0.16991783  0.76920780    -0.23600
C870        C  0.17848843  0.16011404  0.76918670     0.19300
F871        F  0.19694978  0.15783556  0.79673970    -0.13600
F872        F  0.22780593  0.13703487  0.74150377    -0.15900
F873        F  0.09018021  0.17983934  0.73853163    -0.15900
F874        F  0.12233502  0.16257006  0.68438503    -0.13600
C875        C  0.84494946  0.78002714  0.24256083     0.24400
C876        C  0.83338596  0.79755258  0.21504203    -0.23700
C877        C  0.80851639  0.82444450  0.21799815     0.19300
C878        C  0.79844167  0.83621453  0.24816043     0.24400
C879        C  0.81319809  0.82135051  0.27571705    -0.23600
C880        C  0.83510148  0.79198759  0.27278824     0.19300
F881        F  0.85045161  0.77785289  0.29898667    -0.13600
F882        F  0.86912626  0.75411904  0.24017850    -0.15900
F883        F  0.77748904  0.86484175  0.25045441    -0.15900
F884        F  0.79741873  0.84217941  0.19182220    -0.13600
C885        C  0.77883764  0.00938542  0.28016833     0.24400
C886        C  0.76761606  0.97445121  0.27814539    -0.23700
C887        C  0.75479504  0.96147626  0.24921441     0.19300
C888        C  0.75634162  0.98223112  0.22178119     0.24400
C889        C  0.77153856  0.01591696  0.22305749    -0.23600
C890        C  0.78098994  0.02993890  0.25282706     0.19300
F891        F  0.79495766  0.06260064  0.25519247    -0.13600
F892        F  0.79166468  0.02228266  0.30794588    -0.15900
F893        F  0.74616523  0.96806562  0.19364425    -0.15900
F894        F  0.74276360  0.92805246  0.24721241    -0.13600
C895        C  0.78337116  0.92882916  0.51157719     0.24400
C896        C  0.78497461  0.89831841  0.53052681    -0.23700
C897        C  0.78996131  0.86563768  0.51531438     0.19300
C898        C  0.79308971  0.86364224  0.48216405     0.24400
C899        C  0.79082425  0.89408792  0.46344479    -0.23600
C900        C  0.78611194  0.92667459  0.47851618     0.19300
F901        F  0.78461242  0.95675135  0.46119138    -0.13600
F902        F  0.77909478  0.96098963  0.52486740    -0.15900
F903        F  0.79705739  0.83174196  0.46831404    -0.15900
F904        F  0.79160227  0.83539299  0.53236056    -0.13600
C905        C  0.80856312  0.85501759  0.75195546     0.24400
C906        C  0.81687533  0.84018702  0.72227665    -0.23700
C907        C  0.83400449  0.80754852  0.72120495     0.19300
C908        C  0.84690328  0.79265488  0.74913375     0.24400
C909        C  0.84277743  0.81016130  0.77811190    -0.23600
C910        C  0.82138956  0.83996292  0.77979778     0.19300
F911        F  0.81658472  0.85693555  0.80783803    -0.13600
F912        F  0.79074119  0.88573244  0.75389619    -0.15900
F913        F  0.86552088  0.76244650  0.74767771    -0.15900
F914        F  0.84174029  0.79202735  0.69304799    -0.13600
C915        C  0.76240410  0.01573808  0.71732393     0.24400
C916        C  0.75405725  0.98024403  0.71323585    -0.23700
C917        C  0.74299857  0.96044520  0.73963701     0.19300
C918        C  0.74403137  0.97505969  0.77031058     0.24400
C919        C  0.75524035  0.00984258  0.77453475    -0.23600
C920        C  0.76281294  0.03040135  0.74767341     0.19300
F921        F  0.77444467  0.06372717  0.75119439    -0.13600
F922        F  0.77400088  0.03512486  0.69232840    -0.15900
F923        F  0.73805064  0.95424008  0.79594702    -0.15900
F924        F  0.73506683  0.92596522  0.73610457    -0.13600
C925        C  0.97180817  0.74668426  0.24883862     0.24400
C926        C  0.98575038  0.75050464  0.21820891    -0.23700
C927        C  0.02224667  0.75136205  0.21411010     0.19300
C928        C  0.04424287  0.75254027  0.24054112     0.24400
C929        C  0.03014844  0.75171125  0.27136590    -0.23600
C930        C  0.99391696  0.74655237  0.27527298     0.19300
F931        F  0.97942650  0.74543145  0.30472116    -0.13600
F932        F  0.93667467  0.74555278  0.25332075    -0.15900
F933        F  0.07902201  0.75719359  0.23590565    -0.15900
F934        F  0.03646252  0.75531003  0.18472106    -0.13600
C935        C  0.16632289  0.78162027  0.25064354     0.24400
C936        C  0.17883233  0.80022862  0.27711868    -0.23700
C937        C  0.20465223  0.82591452  0.27270249     0.19300
C938        C  0.21430607  0.83589906  0.24190274     0.24400
C939        C  0.19736570  0.82128055  0.21540447    -0.23600
C940        C  0.17484606  0.79262561  0.21978809     0.19300
F941        F  0.15820396  0.77800178  0.19452666    -0.13600
F942        F  0.14280179  0.75539139  0.25479002    -0.15900
F943        F  0.23732644  0.86255661  0.23785212    -0.15900
F944        F  0.21746144  0.84400077  0.29796122    -0.13600
C945        C  0.95772074  0.80833306  0.37493916     0.24400
C946        C  0.98588800  0.83077658  0.36791226    -0.23700
C947        C  0.97917949  0.86658429  0.36269235     0.19300
C948        C  0.94481672  0.87945692  0.36308889     0.24400
C949        C  0.91622113  0.85662075  0.36820550    -0.23600
C950        C  0.92328068  0.82103072  0.37503614     0.19300
F951        F  0.89682126  0.79787044  0.38006718    -0.13600
F952        F  0.96322071  0.77345574  0.37931476    -0.15900
F953        F  0.93963313  0.91415268  0.35738513    -0.15900
F954        F  0.00592506  0.88908554  0.35651589    -0.13600
C955        C  0.11754965  0.93061347  0.36566846     0.24400
C956        C  0.14035350  0.90172421  0.36920933    -0.23700
C957        C  0.17616473  0.90832059  0.37532264     0.19300
C958        C  0.18902169  0.94270309  0.37620840     0.24400
C959        C  0.16650765  0.97126596  0.37091746    -0.23600
C960        C  0.13056724  0.96494927  0.36633694     0.19300
F961        F  0.10812525  0.99210748  0.36153481    -0.13600
F962        F  0.08277429  0.92578961  0.36037109    -0.15900
F963        F  0.22404618  0.94785364  0.37957325    -0.15900
F964        F  0.19938139  0.88154033  0.37847754    -0.13600
C965        C  0.94593755  0.81345954  0.60992316     0.24400
C966        C  0.97491721  0.83455320  0.61835263    -0.23700
C967        C  0.96922387  0.87062276  0.62395682     0.19300
C968        C  0.93526646  0.88427632  0.62435623     0.24400
C969        C  0.90626690  0.86244461  0.61882322    -0.23600
C970        C  0.91193440  0.82734566  0.61011045     0.19300
F971        F  0.88439879  0.80571397  0.60427455    -0.13600
F972        F  0.95008368  0.77887039  0.60326754    -0.15900
F973        F  0.93061520  0.91876320  0.63126345    -0.15900
F974        F  0.99627284  0.89259006  0.63061002    -0.13600
C975        C  0.17603724  0.94025998  0.60088767     0.24400
C976        C  0.15815751  0.96879744  0.61455219    -0.23700
C977        C  0.12382045  0.96331520  0.62604538     0.19300
C978        C  0.10933950  0.92968911  0.62684457     0.24400
C979        C  0.12841986  0.90066621  0.61575828    -0.23600
C980        C  0.16121078  0.90652428  0.60130208     0.19300
F981        F  0.18007556  0.87929688  0.58955983    -0.13600
F982        F  0.20840101  0.94469591  0.58815482    -0.15900
F983        F  0.07700636  0.92538640  0.63973553    -0.15900
F984        F  0.10482837  0.99003834  0.63860847    -0.13600
C985        C  0.06412155  0.76770654  0.50930671     0.24400
C986        C  0.09337782  0.77607054  0.52829740    -0.23700
C987        C  0.12500637  0.78551869  0.51308685     0.19300
C988        C  0.12737686  0.78614672  0.47995947     0.24400
C989        C  0.09835585  0.77720630  0.46106505    -0.23600
C990        C  0.06666130  0.76803050  0.47609135     0.19300
F991        F  0.03785062  0.75975627  0.45865252    -0.13600
F992        F  0.03303535  0.75882722  0.52275155    -0.15900
F993        F  0.15855475  0.79457048  0.46642055    -0.15900
F994        F  0.15395307  0.79428404  0.53014184    -0.13600
C995        C  0.98242066  0.74113365  0.71614248     0.24400
C996        C  0.01910205  0.74138234  0.71431130    -0.23700
C997        C  0.03855259  0.73620450  0.74236385     0.19300
C998        C  0.02181640  0.73542789  0.77214585     0.24400
C999        C  0.98521262  0.73883282  0.77413108    -0.23600
C1000       C  0.96566781  0.73953074  0.74578062     0.19300
F1001       F  0.93035325  0.74232571  0.74698567    -0.13600
F1002       F  0.96292246  0.74601286  0.68947403    -0.15900
F1003       F  0.04153924  0.73498518  0.79904346    -0.15900
F1004       F  0.07394979  0.73489490  0.74107655    -0.13600
C1005       C  0.19534358  0.85636403  0.74389920     0.24400
C1006       C  0.18354462  0.84244766  0.77294895    -0.23700
C1007       C  0.16412686  0.81119245  0.77319790     0.19300
C1008       C  0.15238612  0.79707593  0.74462877     0.24400
C1009       C  0.15983000  0.81407078  0.71585273    -0.23600
C1010       C  0.18357079  0.84212919  0.71534853     0.19300
F1011       F  0.19185726  0.85842527  0.68762046    -0.13600
F1012       F  0.21579302  0.88549764  0.74321034    -0.15900
F1013       F  0.13140259  0.76847100  0.74516466    -0.15900
F1014       F  0.15305487  0.79666813  0.80093164    -0.13600
C1015       C  0.86746606  0.18664305  0.24788252     0.24400
C1016       C  0.84775482  0.17605883  0.27435631    -0.23700
C1017       C  0.81503140  0.16006862  0.26966910     0.19300
C1018       C  0.80418515  0.15119543  0.23877465     0.24400
C1019       C  0.82615033  0.15817965  0.21266864    -0.23600
C1020       C  0.85690154  0.17754493  0.21727221     0.19300
F1021       F  0.87880104  0.18387714  0.19249363    -0.13600
F1022       F  0.89891848  0.20253818  0.25195003    -0.15900
F1023       F  0.77443842  0.13217166  0.23473034    -0.15900
F1024       F  0.79564480  0.14956824  0.29498743    -0.13600
C1025       C  0.98210637  0.23818454  0.24967250     0.24400
C1026       C  0.99416018  0.22336893  0.27820916    -0.23700
C1027       C  0.02814982  0.20972717  0.27981609     0.19300
C1028       C  0.04877100  0.20788895  0.25259629     0.24400
C1029       C  0.03609600  0.22053915  0.22316081    -0.23600
C1030       C  0.00311982  0.23725202  0.22235444     0.19300
F1031       F  0.98986184  0.24990041  0.19464597    -0.13600
F1032       F  0.94940829  0.25198915  0.24788544    -0.15900
F1033       F  0.07994655  0.19098645  0.25479189    -0.15900
F1034       F  0.04005641  0.19474011  0.30711264    -0.13600
C1035       C  0.03659301  0.11580165  0.37773745     0.24400
C1036       C  0.03015609  0.15191866  0.38115759    -0.23700
C1037       C  0.05850448  0.17443622  0.38740255     0.19300
C1038       C  0.09296662  0.16161829  0.38682387     0.24400
C1039       C  0.09963172  0.12599853  0.37991349    -0.23600
C1040       C  0.07087177  0.10288833  0.37750109     0.19300
F1041       F  0.07576175  0.06793126  0.37311431    -0.13600
F1042       F  0.00964429  0.09312889  0.37290757    -0.15900
F1043       F  0.11974140  0.18465299  0.39085375    -0.15900
F1044       F  0.05317554  0.20941993  0.39098855    -0.13600
C1045       C  0.88506152  0.01407167  0.36430912     0.24400
C1046       C  0.85067586  0.00803938  0.37506969    -0.23700
C1047       C  0.83189771  0.03603355  0.38848291     0.19300
C1048       C  0.84595727  0.07002839  0.38835357     0.24400
C1049       C  0.87915051  0.07669752  0.37483957    -0.23600
C1050       C  0.89921305  0.04791816  0.36427961     0.19300
F1051       F  0.93176083  0.05258259  0.35197336    -0.13600
F1052       F  0.90454763  0.98732429  0.35241736    -0.15900
F1053       F  0.82623335  0.09663604  0.40010353    -0.15900
F1054       F  0.79879867  0.03113041  0.39940184    -0.13600
C1055       C  0.06345690  0.17813708  0.60670475     0.24400
C1056       C  0.03373222  0.15619843  0.60870342    -0.23700
C1057       C  0.03852840  0.11960407  0.60582823     0.19300
C1058       C  0.07223612  0.10522740  0.60531853     0.24400
C1059       C  0.10177570  0.12704700  0.60668481    -0.23600
C1060       C  0.09721174  0.16360639  0.60566793     0.19300
F1061       F  0.12543661  0.18526062  0.60701168    -0.13600
F1062       F  0.06019661  0.21356128  0.60829955    -0.15900
F1063       F  0.07609126  0.06980222  0.60520682    -0.15900
F1064       F  0.01065905  0.09745240  0.60527765    -0.13600
C1065       C  0.89874635  0.05430765  0.62530219     0.24400
C1066       C  0.87939109  0.08400147  0.61603474    -0.23700
C1067       C  0.84511675  0.07918134  0.60426639     0.19300
C1068       C  0.82952079  0.04583167  0.60450193     0.24400
C1069       C  0.84790639  0.01655791  0.61639493    -0.23600
C1070       C  0.88332698  0.02106159  0.62543212     0.19300
F1071       F  0.90276906  0.99371168  0.63634146    -0.13600
F1072       F  0.93234872  0.05755875  0.63560314    -0.15900
F1073       F  0.79582396  0.04264902  0.59452816    -0.15900
F1074       F  0.82564155  0.10708035  0.59470260    -0.13600
C1075       C  0.88138911  0.19863374  0.51441818     0.24400
C1076       C  0.91061974  0.21298957  0.53028727    -0.23700
C1077       C  0.93864754  0.22611711  0.51206629     0.19300
C1078       C  0.93795242  0.22409788  0.47897182     0.24400
C1079       C  0.90920160  0.20888506  0.46309663    -0.23600
C1080       C  0.88075900  0.19649674  0.48119778     0.19300
F1081       F  0.85206159  0.18262787  0.46680727    -0.13600
F1082       F  0.85357459  0.18599522  0.53095394    -0.15900
F1083       F  0.96597337  0.23653557  0.46258221    -0.15900
F1084       F  0.96694906  0.24112858  0.52617678    -0.13600
C1085       C  0.02343528  0.24107130  0.72020076     0.24400
C1086       C  0.98717545  0.24048251  0.71477312    -0.23700
C1087       C  0.96423245  0.24438839  0.74060629     0.19300
C1088       C  0.97719696  0.24307683  0.77182144     0.24400
C1089       C  0.01336561  0.23997691  0.77723657    -0.23600
C1090       C  0.03643605  0.24204037  0.75134617     0.19300
F1091       F  0.07156191  0.24175492  0.75635527    -0.13600
F1092       F  0.04606367  0.23772765  0.69551801    -0.15900
F1093       F  0.95444513  0.24203078  0.79657206    -0.15900
F1094       F  0.92912311  0.24591284  0.73557208    -0.13600
C1095       C  0.87561330  0.17144069  0.75154992     0.24400
C1096       C  0.85862558  0.16776779  0.72193598    -0.23700
C1097       C  0.82347282  0.15636335  0.72129166     0.19300
C1098       C  0.80724264  0.14516864  0.74931424     0.24400
C1099       C  0.82570036  0.14586140  0.77813358    -0.23600
C1100       C  0.85899782  0.16108457  0.77942129     0.19300
F1101       F  0.87699192  0.16235668  0.80730117    -0.13600
F1102       F  0.90927644  0.18260672  0.75354544    -0.15900
F1103       F  0.77411327  0.13233247  0.74815531    -0.15900
F1104       F  0.80573003  0.15335787  0.69341946    -0.13600
C1105       C  0.36279659  0.15775690  0.60643334     0.24400
C1106       C  0.36495927  0.18326909  0.63040272    -0.23700
C1107       C  0.34379781  0.18020412  0.65744768     0.19300
C1108       C  0.31868080  0.15367554  0.65939039     0.24400
C1109       C  0.31422397  0.12985450  0.63419050    -0.23600
C1110       C  0.33767811  0.13090558  0.60842033     0.19300
F1111       F  0.33371519  0.10852866  0.58359438    -0.13600
F1112       F  0.38294011  0.16059085  0.57998619    -0.15900
F1113       F  0.29665079  0.15302786  0.68471903    -0.15900
F1114       F  0.34528960  0.20486442  0.68066903    -0.13600
C1115       C  0.34397966  0.12815684  0.38056627     0.24400
C1116       C  0.31897371  0.12661723  0.35605109    -0.23700
C1117       C  0.32208604  0.14892618  0.32975551     0.19300
C1118       C  0.34780377  0.17485428  0.32928855     0.24400
C1119       C  0.37075429  0.17887796  0.35522776    -0.23600
C1120       C  0.37007191  0.15410809  0.38004988     0.19300
F1121       F  0.39175345  0.15760071  0.40547767    -0.13600
F1122       F  0.34091685  0.10697437  0.40640543    -0.15900
F1123       F  0.34818968  0.19818633  0.30484046    -0.15900
F1124       F  0.29770645  0.14811421  0.30620125    -0.13600
C1125       C  0.38556616  0.28162538  0.47559142     0.24400
C1126       C  0.41697677  0.27111374  0.46061606    -0.23700
C1127       C  0.44661453  0.26440819  0.47968217     0.19300
C1128       C  0.44457990  0.26727723  0.51282820     0.24400
C1129       C  0.41293811  0.27704665  0.52760749    -0.23600
C1130       C  0.38365637  0.28460085  0.50858553     0.19300
F1131       F  0.35264810  0.29392150  0.52192595    -0.13600
F1132       F  0.35638538  0.28930778  0.45842041    -0.15900
F1133       F  0.47377096  0.26089560  0.53043202    -0.15900
F1134       F  0.47754221  0.25475067  0.46641142    -0.13600
C1135       C  0.18405638  0.64961756  0.65776581     0.24400
C1136       C  0.19138044  0.63151367  0.62955710    -0.23700
C1137       C  0.17134416  0.63842885  0.60219021     0.19300
C1138       C  0.14581725  0.66485280  0.60248817     0.24400
C1139       C  0.14078486  0.68510475  0.62997473    -0.23600
C1140       C  0.15908213  0.67644967  0.65791741     0.19300
F1141       F  0.15447365  0.69568513  0.68473345    -0.13600
F1142       F  0.20367835  0.64382337  0.68421807    -0.15900
F1143       F  0.12889486  0.67320939  0.57506909    -0.15900
F1144       F  0.17866888  0.62171024  0.57450537    -0.13600
C1145       C  0.32093893  0.44462902  0.61282736     0.24400
C1146       C  0.34304089  0.47310437  0.61983265    -0.23700
C1147       C  0.37899288  0.46675709  0.62452262     0.19300
C1148       C  0.39221364  0.43245161  0.62417446     0.24400
C1149       C  0.36969180  0.40355668  0.61930176    -0.23600
C1150       C  0.33402866  0.41027778  0.61262097     0.19300
F1151       F  0.31114250  0.38354091  0.60774706    -0.13600
F1152       F  0.28602056  0.44968447  0.60856559    -0.15900
F1153       F  0.42693382  0.42761270  0.62978457    -0.15900
F1154       F  0.40130218  0.49380135  0.63022298    -0.13600
C1155       C  0.19328413  0.65267385  0.33122369     0.24400
C1156       C  0.19876410  0.63005889  0.35720599    -0.23700
C1157       C  0.17575482  0.63162854  0.38328991     0.19300
C1158       C  0.14990783  0.65781388  0.38461624     0.24400
C1159       C  0.14619982  0.68184557  0.35947474    -0.23600
C1160       C  0.16698225  0.67813445  0.33225479     0.19300
F1161       F  0.16386675  0.70130032  0.30784414    -0.13600
F1162       F  0.21500434  0.65163153  0.30570743    -0.15900
F1163       F  0.13046200  0.66150150  0.41140584    -0.15900
F1164       F  0.18066714  0.61034683  0.40883605    -0.13600
C1165       C  0.32490246  0.43232525  0.37968865     0.24400
C1166       C  0.34660032  0.46194368  0.37504585    -0.23700
C1167       C  0.38321169  0.45674335  0.37362629     0.19300
C1168       C  0.39731353  0.42287212  0.37360709     0.24400
C1169       C  0.37543081  0.39342744  0.37597859    -0.23600
C1170       C  0.33927793  0.39842313  0.38037884     0.19300
F1171       F  0.31747125  0.37035410  0.38252065    -0.13600
F1172       F  0.28955539  0.43578500  0.38155771    -0.15900
F1173       F  0.43242529  0.41874283  0.37001639    -0.15900
F1174       F  0.40551027  0.48431421  0.37068697    -0.13600
C1175       C  0.28235255  0.55027001  0.48095613     0.24400
C1176       C  0.28320883  0.58081139  0.46200350    -0.23700
C1177       C  0.28512143  0.61376908  0.47738367     0.19300
C1178       C  0.28631142  0.61601027  0.51050179     0.24400
C1179       C  0.28514338  0.58558034  0.52924269    -0.23600
C1180       C  0.28301113  0.55269044  0.51422751     0.19300
F1181       F  0.28263266  0.52275926  0.53178433    -0.13600
F1182       F  0.28146323  0.51797180  0.46743287    -0.15900
F1183       F  0.28769153  0.64819036  0.52428983    -0.15900
F1184       F  0.28582933  0.64419757  0.46053998    -0.13600
C1185       C  0.67149631  0.85046811  0.60521972     0.24400
C1186       C  0.69103063  0.85622203  0.63306577    -0.23700
C1187       C  0.68246320  0.83744380  0.66082765     0.19300
C1188       C  0.65684798  0.81118909  0.66001573     0.24400
C1189       C  0.63995728  0.80302449  0.63135479    -0.23600
C1190       C  0.64637837  0.82364137  0.60426761     0.19300
F1191       F  0.63051130  0.81578757  0.57625298    -0.13600
F1192       F  0.67960213  0.86790884  0.57803466    -0.15900
F1193       F  0.65090667  0.79150016  0.68640644    -0.15900
F1194       F  0.70086228  0.84269249  0.68807648    -0.13600
C1195       C  0.47387664  0.61921277  0.61657127     0.24400
C1196       C  0.48018653  0.65530301  0.61318418    -0.23700
C1197       C  0.45178002  0.67804629  0.60801743     0.19300
C1198       C  0.41737010  0.66524423  0.60896133     0.24400
C1199       C  0.41084600  0.62936520  0.61504424    -0.23600
C1200       C  0.43964544  0.60629056  0.61723434     0.19300
F1201       F  0.43487123  0.57131302  0.62163104    -0.13600
F1202       F  0.50097687  0.59656308  0.62075417    -0.15900
F1203       F  0.39057593  0.68847177  0.60603475    -0.15900
F1204       F  0.45711422  0.71313641  0.60507117    -0.13600
C1205       C  0.67169094  0.85009650  0.38381089     0.24400
C1206       C  0.69625262  0.85328293  0.35916811    -0.23700
C1207       C  0.69322119  0.83194000  0.33219994     0.19300
C1208       C  0.66790005  0.80554139  0.33106419     0.24400
C1209       C  0.64502513  0.80035992  0.35682143    -0.23600
C1210       C  0.64587764  0.82393489  0.38250261     0.19300
F1211       F  0.62444347  0.81913897  0.40787157    -0.13600
F1212       F  0.67478981  0.87005351  0.41036952    -0.15900
F1213       F  0.66738633  0.78335729  0.30582695    -0.15900
F1214       F  0.71700904  0.83449853  0.30832017    -0.13600
C1215       C  0.44912382  0.67224421  0.38191482     0.24400
C1216       C  0.47917364  0.65140121  0.37697048    -0.23700
C1217       C  0.47532889  0.61452632  0.37714947     0.19300
C1218       C  0.44206006  0.59921025  0.37846222     0.24400
C1219       C  0.41199286  0.62021937  0.38062697    -0.23600
C1220       C  0.41587198  0.65672520  0.38387463     0.19300
F1221       F  0.38720276  0.67771665  0.38574684    -0.13600
F1222       F  0.45142651  0.70778264  0.38263616    -0.15900
F1223       F  0.43908397  0.56380165  0.37608008    -0.15900
F1224       F  0.50359242  0.59310773  0.37443156    -0.13600
C1225       C  0.56552814  0.71230274  0.47962420     0.24400
C1226       C  0.59648211  0.71289335  0.46139382    -0.23700
C1227       C  0.62906121  0.71159569  0.47748102     0.19300
C1228       C  0.63050002  0.70970664  0.51071554     0.24400
C1229       C  0.59957217  0.70964501  0.52868338    -0.23600
C1230       C  0.56711694  0.71099401  0.51285040     0.19300
F1231       F  0.53673833  0.71012781  0.52959641    -0.13600
F1232       F  0.53355335  0.71246585  0.46542435    -0.15900
F1233       F  0.66222671  0.70907391  0.52537976    -0.15900
F1234       F  0.65975835  0.71242168  0.46121369    -0.13600
C1235       C  0.83622680  0.34832986  0.60690492     0.24400
C1236       C  0.81256507  0.35267790  0.63211258    -0.23700
C1237       C  0.81614089  0.33180022  0.65945200     0.19300
C1238       C  0.84118173  0.30498339  0.66054339     0.24400
C1239       C  0.86328509  0.29892490  0.63438737    -0.23600
C1240       C  0.86181715  0.32193946  0.60822052     0.19300
F1241       F  0.88272996  0.31664634  0.58259307    -0.13600
F1242       F  0.83266698  0.36770145  0.57997984    -0.15900
F1243       F  0.84262166  0.28373348  0.68647103    -0.15900
F1244       F  0.79337866  0.33549157  0.68400139    -0.13600
C1245       C  0.68062294  0.54048749  0.60743558     0.24400
C1246       C  0.66133905  0.51235645  0.62014094    -0.23700
C1247       C  0.62680649  0.51863561  0.63050691     0.19300
C1248       C  0.61277061  0.55258086  0.63018144     0.24400
C1249       C  0.63299000  0.58133680  0.61968752    -0.23600
C1250       C  0.66665325  0.57457645  0.60718201     0.19300
F1251       F  0.68677225  0.60114361  0.59583716    -0.13600
F1252       F  0.71401827  0.53554997  0.59732264    -0.15900
F1253       F  0.57995383  0.55732059  0.64187041    -0.15900
F1254       F  0.60687253  0.49198129  0.64204220    -0.13600
C1255       C  0.56465224  0.38166904  0.63297467     0.24400
C1256       C  0.59277321  0.36111746  0.62169728    -0.23700
C1257       C  0.58525208  0.32790351  0.60859100     0.19300
C1258       C  0.55098374  0.31465322  0.60874946     0.24400
C1259       C  0.52345278  0.33433290  0.62199640    -0.23600
C1260       C  0.53055182  0.36835100  0.63321530     0.19300
F1261       F  0.50455322  0.38856441  0.64545715    -0.13600
F1262       F  0.57014052  0.41412433  0.64527852    -0.15900
F1263       F  0.54526390  0.28161133  0.59792185    -0.15900
F1264       F  0.61123204  0.30737406  0.59681208    -0.13600
C1265       C  0.83909774  0.34895267  0.37981952     0.24400
C1266       C  0.81359978  0.34900309  0.35557509    -0.23700
C1267       C  0.81636861  0.32418780  0.33089135     0.19300
C1268       C  0.84217235  0.29816384  0.33180516     0.24400
C1269       C  0.86596665  0.29652081  0.35718504    -0.23600
C1270       C  0.86493856  0.32261547  0.38076228     0.19300
F1271       F  0.88696359  0.32077906  0.40608837    -0.13600
F1272       F  0.83690542  0.37211411  0.40421292    -0.15900
F1273       F  0.84220863  0.27279866  0.30915711    -0.15900
F1274       F  0.79258237  0.32375528  0.30682859    -0.13600
C1275       C  0.62935963  0.52287887  0.37502773     0.24400
C1276       C  0.66621370  0.51877976  0.37460843    -0.23700
C1277       C  0.68727093  0.54906882  0.37686710     0.19300
C1278       C  0.67198827  0.58247895  0.37782545     0.24400
C1279       C  0.63543269  0.58642037  0.37602153    -0.23600
C1280       C  0.61423769  0.55636594  0.37523075     0.19300
F1281       F  0.57882950  0.55949068  0.37349897    -0.13600
F1282       F  0.60775791  0.49458257  0.37376658    -0.15900
F1283       F  0.69311380  0.61114584  0.37737711    -0.15900
F1284       F  0.72273132  0.54670569  0.37570712    -0.13600
C1285       C  0.59421077  0.32945530  0.38323381     0.24400
C1286       C  0.59937758  0.36400027  0.37227154    -0.23700
C1287       C  0.57007553  0.38405321  0.36344068     0.19300
C1288       C  0.53663500  0.36922953  0.36318105     0.24400
C1289       C  0.53164405  0.33362921  0.37136120    -0.23600
C1290       C  0.56069720  0.31431928  0.38261249     0.19300
F1291       F  0.55715441  0.28024446  0.39154216    -0.13600
F1292       F  0.62190212  0.30938277  0.39226505    -0.15900
F1293       F  0.50952114  0.38948678  0.35311032    -0.15900
F1294       F  0.57395587  0.41786073  0.35380946    -0.13600
C1295       C  0.70772096  0.37008584  0.50950915     0.24400
C1296       C  0.72121669  0.39782958  0.52793426    -0.23700
C1297       C  0.73716070  0.42633356  0.51210807     0.19300
C1298       C  0.73927685  0.42714694  0.47886001     0.24400
C1299       C  0.72574689  0.39938066  0.46046473    -0.23600
C1300       C  0.71015638  0.37073965  0.47629287     0.19300
F1301       F  0.69661382  0.34339691  0.45966361    -0.13600
F1302       F  0.69245564  0.34188159  0.52356154    -0.15900
F1303       F  0.75500765  0.45509655  0.46477507    -0.15900
F1304       F  0.75045948  0.45383161  0.52870546    -0.13600
C1305       C  0.18369712  0.32985269  0.82871990     0.24400
C1306       C  0.18971207  0.35006120  0.85597833    -0.23700
C1307       C  0.16679221  0.34724932  0.88194495     0.19300
C1308       C  0.13946095  0.32265339  0.88147377     0.24400
C1309       C  0.13528011  0.30031442  0.85517749    -0.23600
C1310       C  0.15659814  0.30522293  0.82825482     0.19300
F1311       F  0.15291922  0.28414899  0.80244722    -0.13600
F1312       F  0.20605234  0.33173854  0.80368435    -0.15900
F1313       F  0.11982307  0.31792455  0.90802577    -0.15900
F1314       F  0.17287159  0.36602052  0.90879655    -0.13600
C1315       C  0.25113347  0.46300322  0.74526328     0.24400
C1316       C  0.26332947  0.47475825  0.77484640    -0.23700
C1317       C  0.27428886  0.50963176  0.77820287     0.19300
C1318       C  0.27675119  0.53140277  0.75165068     0.24400
C1319       C  0.26732046  0.51892518  0.72128256    -0.23600
C1320       C  0.25265818  0.48508174  0.71865277     0.19300
F1321       F  0.24291068  0.47209651  0.68992792    -0.13600
F1322       F  0.23930309  0.42968140  0.74184358    -0.15900
F1323       F  0.29105776  0.56369772  0.75545531    -0.15900
F1324       F  0.28636114  0.52144730  0.80664136    -0.13600
C1325       C  0.29620189  0.34205059  0.74347749     0.24400
C1326       C  0.30896402  0.32433533  0.77041505    -0.23700
C1327       C  0.32808423  0.29323183  0.76645103     0.19300
C1328       C  0.33789919  0.28249037  0.73584917     0.24400
C1329       C  0.32887609  0.30298655  0.70923653    -0.23600
C1330       C  0.30612216  0.33147594  0.71303736     0.19300
F1331       F  0.29742576  0.35178942  0.68765286    -0.13600
F1332       F  0.27759511  0.37207648  0.74686686    -0.15900
F1333       F  0.35984412  0.25474066  0.73251655    -0.15900
F1334       F  0.34089616  0.27588961  0.79217609    -0.13600
C1335       C  0.16554312  0.30711886  0.15975466     0.24400
C1336       C  0.14597728  0.30077042  0.13212924    -0.23700
C1337       C  0.15013329  0.32301007  0.10569392     0.19300
C1338       C  0.17521976  0.34994502  0.10622801     0.24400
C1339       C  0.19710235  0.35412237  0.13287530    -0.23600
C1340       C  0.19105205  0.33347111  0.16009129     0.19300
F1341       F  0.21185345  0.33697295  0.18612812    -0.13600
F1342       F  0.16243704  0.28544823  0.18525731    -0.15900
F1343       F  0.18087052  0.36912273  0.07948239    -0.15900
F1344       F  0.13207942  0.31666964  0.07845799    -0.13600
C1345       C  0.26599126  0.41814152  0.97516948     0.24400
C1346       C  0.28254231  0.38994366  0.95948439    -0.23700
C1347       C  0.29825746  0.36343889  0.97804989     0.19300
C1348       C  0.29815413  0.36559578  0.01134307     0.24400
C1349       C  0.28264439  0.39449748  0.02683896    -0.23600
C1350       C  0.26617061  0.42039980  0.00830517     0.19300
F1351       F  0.24967420  0.44791156  0.02224514    -0.13600
F1352       F  0.24988808  0.44412138  0.95853625    -0.15900
F1353       F  0.31398918  0.33970143  0.02830914    -0.15900
F1354       F  0.31362865  0.33526956  0.96410096    -0.13600
C1355       C  0.25145771  0.46263098  0.23628090     0.24400
C1356       C  0.26390078  0.48140261  0.20972767    -0.23700
C1357       C  0.27354164  0.51663599  0.21361368     0.19300
C1358       C  0.27346722  0.53200655  0.24377360     0.24400
C1359       C  0.26406907  0.51255783  0.27088180    -0.23600
C1360       C  0.25185126  0.47800729  0.26678953     0.19300
F1361       F  0.24389494  0.45805182  0.29253589    -0.13600
F1362       F  0.24239190  0.42837775  0.23316246    -0.15900
F1363       F  0.28611042  0.56499101  0.24696366    -0.15900
F1364       F  0.28625364  0.53521661  0.18856583    -0.13600
C1365       C  0.31639015  0.35795168  0.24768273     0.24400
C1366       C  0.32430770  0.34175744  0.21849868    -0.23700
C1367       C  0.33897759  0.30789300  0.21849939     0.19300
C1368       C  0.34994891  0.29281082  0.24706679     0.24400
C1369       C  0.34649413  0.31145850  0.27554237    -0.23600
C1370       C  0.32726566  0.34270831  0.27611068     0.19300
F1371       F  0.32273918  0.36054609  0.30373623    -0.13600
F1372       F  0.30069569  0.38986991  0.24862400    -0.15900
F1373       F  0.36580259  0.26099774  0.24680397    -0.15900
F1374       F  0.34594721  0.29094539  0.19085657    -0.13600
C1375       C  0.67739265  0.13921939  0.83099957     0.24400
C1376       C  0.68781702  0.12328074  0.85966588    -0.23700
C1377       C  0.67044230  0.13202326  0.88795880     0.19300
C1378       C  0.64530562  0.15876091  0.88804345     0.24400
C1379       C  0.63684458  0.17650733  0.85978157    -0.23600
C1380       C  0.65175811  0.16550741  0.83101600     0.19300
F1381       F  0.64416846  0.18267647  0.80353543    -0.13600
F1382       F  0.69410782  0.13130119  0.80345717    -0.15900
F1383       F  0.63152251  0.16954143  0.91611977    -0.15900
F1384       F  0.68085100  0.11776056  0.91603619    -0.13600
C1385       C  0.65539125  0.28275612  0.74504761     0.24400
C1386       C  0.67043285  0.29685992  0.77268377    -0.23700
C1387       C  0.69996965  0.31856139  0.76994585     0.19300
C1388       C  0.71137985  0.32943134  0.73979676     0.24400
C1389       C  0.69296408  0.31918416  0.71235830    -0.23600
C1390       C  0.66630623  0.29408457  0.71501759     0.19300
F1391       F  0.64793540  0.28402117  0.68890032    -0.13600
F1392       F  0.62731773  0.26121509  0.74733725    -0.15900
F1393       F  0.73778383  0.35310711  0.73754011    -0.15900
F1394       F  0.71501786  0.33248317  0.79633101    -0.13600
C1395       C  0.53274520  0.24012229  0.74276317     0.24400
C1396       C  0.51903668  0.24861108  0.77262508    -0.23700
C1397       C  0.48293247  0.25431218  0.77600739     0.19300
C1398       C  0.46160440  0.25618353  0.74918047     0.24400
C1399       C  0.47614314  0.25194262  0.71872666    -0.23600
C1400       C  0.51139529  0.24154476  0.71586545     0.19300
F1401       F  0.52620381  0.23648231  0.68689858    -0.13600
F1402       F  0.56717828  0.23245704  0.73941215    -0.15900
F1403       F  0.42743938  0.26510150  0.75287428    -0.15900
F1404       F  0.46906239  0.26227071  0.80483541    -0.13600
C1405       C  0.41811516  0.32322648  0.88051768     0.24400
C1406       C  0.41082371  0.35654846  0.86727008    -0.23700
C1407       C  0.43925885  0.37714183  0.85673211     0.19300
C1408       C  0.47336195  0.36371067  0.85685426     0.24400
C1409       C  0.48030430  0.32957185  0.86804959    -0.23600
C1410       C  0.45251822  0.31000790  0.88108931     0.19300
F1411       F  0.45815502  0.27710668  0.89242081    -0.13600
F1412       F  0.39184171  0.30273368  0.89186539    -0.15900
F1413       F  0.49957043  0.38388634  0.84489159    -0.15900
F1414       F  0.43409227  0.40980486  0.84465955    -0.13600
C1415       C  0.64994159  0.15774534  0.10515765     0.24400
C1416       C  0.64520958  0.18016851  0.13127195    -0.23700
C1417       C  0.66568170  0.17522969  0.15876985     0.19300
C1418       C  0.69189302  0.14964458  0.15948882     0.24400
C1419       C  0.69813195  0.12881381  0.13267270    -0.23600
C1420       C  0.67653114  0.13237587  0.10578274     0.19300
F1421       F  0.68335635  0.11351611  0.07914367    -0.13600
F1422       F  0.63171653  0.16310836  0.07782368    -0.15900
F1423       F  0.71341276  0.14753200  0.18517013    -0.15900
F1424       F  0.66211373  0.19715110  0.18399142    -0.13600
C1425       C  0.47431849  0.36590180  0.11535669     0.24400
C1426       C  0.47880440  0.32928933  0.11197288    -0.23700
C1427       C  0.44900217  0.30843155  0.10587831     0.19300
C1428       C  0.41545786  0.32337437  0.10589615     0.24400
C1429       C  0.41109816  0.35932398  0.11213739    -0.23600
C1430       C  0.44083176  0.38060928  0.11564283     0.19300
F1431       F  0.43737583  0.41563079  0.12071203    -0.13600
F1432       F  0.50211493  0.38750540  0.12023145    -0.15900
F1433       F  0.38713309  0.30211240  0.10261566    -0.15900
F1434       F  0.45192209  0.27320238  0.10197729    -0.13600
C1435       C  0.56528290  0.25845306  0.00767164     0.24400
C1436       C  0.59490931  0.26793137  0.02578121    -0.23700
C1437       C  0.62518385  0.27970716  0.00979701     0.19300
C1438       C  0.62597912  0.28163390  0.97665560     0.24400
C1439       C  0.59652718  0.27178405  0.95864875    -0.23600
C1440       C  0.56615804  0.26031690  0.97452006     0.19300
F1441       F  0.53689554  0.25126280  0.95800194    -0.13600
F1442       F  0.53543961  0.24713759  0.02189547    -0.15900
F1443       F  0.65590192  0.29242960  0.96222538    -0.15900
F1444       F  0.65420997  0.28981193  0.02612642    -0.13600
C1445       C  0.65298484  0.29431805  0.24208846     0.24400
C1446       C  0.65986012  0.31087356  0.21292473    -0.23700
C1447       C  0.68256827  0.33960222  0.21181142     0.19300
C1448       C  0.69453460  0.35449704  0.23990642     0.24400
C1449       C  0.68503631  0.34011108  0.26952490    -0.23600
C1450       C  0.66591356  0.30857967  0.27034009     0.19300
F1451       F  0.65653136  0.29369519  0.29842102    -0.13600
F1452       F  0.63186520  0.26576986  0.24333093    -0.15900
F1453       F  0.71267041  0.38491266  0.23803685    -0.15900
F1454       F  0.68947687  0.35604540  0.18382247    -0.13600
C1455       C  0.46731896  0.24657222  0.24405258     0.24400
C1456       C  0.48726870  0.24274398  0.27193872    -0.23700
C1457       C  0.52313980  0.23493175  0.26923963     0.19300
C1458       C  0.53909052  0.23376095  0.23909284     0.24400
C1459       C  0.51957086  0.24122482  0.21150006    -0.23600
C1460       C  0.48327507  0.24598594  0.21413705     0.19300
F1461       F  0.46384401  0.25358920  0.18793234    -0.13600
F1462       F  0.43284669  0.25453507  0.24599944    -0.15900
F1463       F  0.57415707  0.22872167  0.23701798    -0.15900
F1464       F  0.54332644  0.23214597  0.29572565    -0.13600
C1465       C  0.83881956  0.67601535  0.83325221     0.24400
C1466       C  0.86197363  0.67961889  0.85913355    -0.23700
C1467       C  0.86004883  0.65543100  0.88436653     0.19300
C1468       C  0.83318428  0.63020215  0.88504135     0.24400
C1469       C  0.80864912  0.62841111  0.86013794    -0.23600
C1470       C  0.81246359  0.65056188  0.83374659     0.19300
F1471       F  0.78869089  0.64957133  0.80970944    -0.13600
F1472       F  0.84017105  0.69888694  0.80847635    -0.15900
F1473       F  0.82931372  0.60957339  0.91114512    -0.15900
F1474       F  0.88170664  0.65862635  0.90983051    -0.13600
C1475       C  0.65166339  0.67895132  0.77568734     0.24400
C1476       C  0.68378797  0.66207011  0.78030811    -0.23700
C1477       C  0.70688608  0.65827595  0.75448588     0.19300
C1478       C  0.69612438  0.66794728  0.72367158     0.24400
C1479       C  0.66219269  0.68120803  0.71877048    -0.23600
C1480       C  0.64092493  0.68818673  0.74521623     0.19300
F1481       F  0.60779353  0.69991115  0.74113189    -0.13600
F1482       F  0.62854883  0.68185810  0.80009016    -0.15900
F1483       F  0.71695023  0.66038843  0.69848134    -0.15900
F1484       F  0.73783556  0.64129121  0.75848359    -0.13600
C1485       C  0.74387197  0.47761205  0.77487832     0.24400
C1486       C  0.73824444  0.51392185  0.77201539    -0.23700
C1487       C  0.73819044  0.52945717  0.74168277     0.19300
C1488       C  0.74045078  0.50852156  0.71450869     0.24400
C1489       C  0.74206992  0.47179075  0.71744449    -0.23600
C1490       C  0.74540977  0.45668749  0.74775718     0.19300
F1491       F  0.74738255  0.42136660  0.75119099    -0.13600
F1492       F  0.74384262  0.46181398  0.80385323    -0.15900
F1493       F  0.73692740  0.52382880  0.68549261    -0.15900
F1494       F  0.73352784  0.56459893  0.73833825    -0.13600
C1495       C  0.66685405  0.40484977  0.87927760     0.24400
C1496       C  0.63263135  0.39799627  0.86797134    -0.23700
C1497       C  0.61080924  0.42680931  0.86075729     0.19300
C1498       C  0.62387428  0.46109395  0.86185881     0.24400
C1499       C  0.65892532  0.46761830  0.87054247    -0.23600
C1500       C  0.67980093  0.43929076  0.88057242     0.19300
F1501       F  0.71364247  0.44455608  0.88935047    -0.13600
F1502       F  0.68858202  0.37818193  0.88767142    -0.15900
F1503       F  0.60242501  0.48794917  0.85329422    -0.15900
F1504       F  0.57714335  0.42195046  0.85121758    -0.13600
C1505       C  0.85579553  0.66465348  0.15941789     0.24400
C1506       C  0.87179374  0.67453720  0.13076116    -0.23700
C1507       C  0.86480401  0.65529852  0.10303140     0.19300
C1508       C  0.83977415  0.62840108  0.10331105     0.24400
C1509       C  0.82118161  0.62087927  0.13130126    -0.23600
C1510       C  0.83053701  0.63801353  0.15966597     0.19300
F1511       F  0.81307772  0.63089169  0.18703907    -0.13600
F1512       F  0.86192819  0.68320156  0.18640079    -0.15900
F1513       F  0.83068676  0.61280936  0.07549356    -0.15900
F1514       F  0.87983413  0.66482170  0.07508354    -0.13600
C1515       C  0.68370903  0.43124525  0.09859499     0.24400
C1516       C  0.66526123  0.46069200  0.10990531    -0.23700
C1517       C  0.62945905  0.45662922  0.11771373     0.19300
C1518       C  0.61404668  0.42344445  0.11826265     0.24400
C1519       C  0.63348474  0.39361778  0.10997744    -0.23600
C1520       C  0.66779581  0.39801919  0.09831158     0.19300
F1521       F  0.68692253  0.36983454  0.08899837    -0.13600
F1522       F  0.71760218  0.43419431  0.08921602    -0.15900
F1523       F  0.58036061  0.42033727  0.12825635    -0.15900
F1524       F  0.60961244  0.48439719  0.12687471    -0.13600
C1525       C  0.73954322  0.55207517  0.00980507     0.24400
C1526       C  0.72638394  0.57917919  0.02903190    -0.23700
C1527       C  0.70854210  0.60734459  0.01461319     0.19300
C1528       C  0.70449573  0.60870095  0.98159346     0.24400
C1529       C  0.71810358  0.58181593  0.96228885    -0.23600
C1530       C  0.73534612  0.55328182  0.97689170     0.19300
F1531       F  0.74809077  0.52619656  0.95943539    -0.13600
F1532       F  0.75694834  0.52442218  0.02275762    -0.15900
F1533       F  0.68759969  0.63662636  0.96862050    -0.15900
F1534       F  0.69420486  0.63324824  0.03249049    -0.13600
C1535       C  0.68129826  0.66760388  0.22192514     0.24400
C1536       C  0.68940226  0.63148727  0.22161634    -0.23700
C1537       C  0.68599765  0.61194969  0.25003034     0.19300
C1538       C  0.67270763  0.62740970  0.27716053     0.24400
C1539       C  0.66139011  0.66216799  0.27639073    -0.23600
C1540       C  0.66664499  0.68271838  0.24915977     0.19300
F1541       F  0.65630449  0.71678039  0.24856581    -0.13600
F1542       F  0.68494680  0.68757531  0.19537599    -0.15900
F1543       F  0.66731130  0.60718954  0.30333722    -0.15900
F1544       F  0.69221518  0.57692866  0.25117293    -0.13600
C1545       C  0.76225323  0.46664437  0.21802058     0.24400
C1546       C  0.75743992  0.50270953  0.21301904    -0.23700
C1547       C  0.75673720  0.52529691  0.23934934     0.19300
C1548       C  0.75454164  0.51152765  0.27020942     0.24400
C1549       C  0.75590041  0.47509759  0.27504972    -0.23600
C1550       C  0.76286693  0.45312631  0.24906795     0.19300
F1551       F  0.76720828  0.41820410  0.25371167    -0.13600
F1552       F  0.76346698  0.44436098  0.19291316    -0.15900
F1553       F  0.74853534  0.53343778  0.29502956    -0.15900
F1554       F  0.75517341  0.56052673  0.23486901    -0.13600
C1555       C  0.34680939  0.81231653  0.83183973     0.24400
C1556       C  0.36033908  0.80022545  0.86094189    -0.23700
C1557       C  0.35025788  0.81695844  0.88922422     0.19300
C1558       C  0.32546828  0.84403114  0.88867530     0.24400
C1559       C  0.30991890  0.85434753  0.85987902    -0.23600
C1560       C  0.32133715  0.83890218  0.83135028     0.19300
F1561       F  0.30599645  0.84783678  0.80332938    -0.13600
F1562       F  0.35564682  0.79604383  0.80430307    -0.15900
F1563       F  0.31371621  0.85738009  0.91660631    -0.15900
F1564       F  0.36246369  0.80517229  0.91764430    -0.13600
C1565       C  0.50807182  0.73649955  0.77076064     0.24400
C1566       C  0.47353656  0.72360797  0.76808670    -0.23700
C1567       C  0.46031257  0.71584897  0.73757599     0.19300
C1568       C  0.48161615  0.71877409  0.71080500     0.24400
C1569       C  0.51686570  0.72835017  0.71396156    -0.23600
C1570       C  0.52959350  0.73870562  0.74384031     0.19300
F1571       F  0.56314972  0.74981548  0.74714011    -0.13600
F1572       F  0.52210528  0.74389171  0.79967448    -0.15900
F1573       F  0.46877901  0.70859096  0.68212715    -0.15900
F1574       F  0.42757825  0.70276184  0.73369449    -0.13600
C1575       C  0.34297520  0.69935860  0.75101263     0.24400
C1576       C  0.32823569  0.68072238  0.77653155    -0.23700
C1577       C  0.30105354  0.65686308  0.77057166     0.19300
C1578       C  0.29164793  0.64883799  0.73918463     0.24400
C1579       C  0.31058307  0.66321450  0.71367133    -0.23600
C1580       C  0.33491535  0.68999237  0.71963816     0.19300
F1581       F  0.35343098  0.70432999  0.69533592    -0.13600
F1582       F  0.36804626  0.72383608  0.75659718    -0.15900
F1583       F  0.26681965  0.62409260  0.73366264    -0.15900
F1584       F  0.28630779  0.63872462  0.79492047    -0.13600
C1585       C  0.52575416  0.61351453  0.85947719     0.24400
C1586       C  0.51861953  0.64798269  0.86957697    -0.23700
C1587       C  0.54622668  0.66805452  0.88235061     0.19300
C1588       C  0.58057070  0.65478515  0.88293895     0.24400
C1589       C  0.58803961  0.62098883  0.87098527    -0.23600
C1590       C  0.55984531  0.60017381  0.86025052     0.19300
F1591       F  0.56526035  0.56734452  0.84877140    -0.13600
F1592       F  0.49980712  0.59283915  0.84772535    -0.15900
F1593       F  0.60664988  0.67575658  0.89395168    -0.15900
F1594       F  0.54050913  0.70140666  0.89238104    -0.13600
C1595       C  0.32930888  0.57186204  0.88196629     0.24400
C1596       C  0.36448045  0.57890552  0.87368512    -0.23700
C1597       C  0.38714119  0.55020336  0.86856524     0.19300
C1598       C  0.37423128  0.51585838  0.86846480     0.24400
C1599       C  0.33858332  0.50914002  0.87413690    -0.23600
C1600       C  0.31654713  0.53729862  0.88225062     0.19300
F1601       F  0.28193860  0.53174817  0.88776315    -0.13600
F1602       F  0.30660773  0.59843853  0.88803097    -0.15900
F1603       F  0.39644131  0.48912641  0.86148839    -0.15900
F1604       F  0.42161471  0.55525605  0.86205948    -0.13600
C1605       C  0.36108491  0.81592408  0.15579493     0.24400
C1606       C  0.37199981  0.80013487  0.12727724    -0.23700
C1607       C  0.35659920  0.81067346  0.09850405     0.19300
C1608       C  0.32897007  0.83475380  0.09843024     0.24400
C1609       C  0.31671197  0.84919811  0.12705727    -0.23600
C1610       C  0.33382991  0.84071126  0.15565852     0.19300
F1611       F  0.32192698  0.85368500  0.18366953    -0.13600
F1612       F  0.37516147  0.80546288  0.18392092    -0.15900
F1613       F  0.31245107  0.84216048  0.07058374    -0.15900
F1614       F  0.36575864  0.79479943  0.07085317    -0.13600
C1615       C  0.54279988  0.61268650  0.12197731     0.24400
C1616       C  0.53821685  0.64860377  0.11459483    -0.23700
C1617       C  0.56809889  0.66857149  0.10664868     0.19300
C1618       C  0.60165585  0.65339768  0.10752937     0.24400
C1619       C  0.60604135  0.61809866  0.11670505    -0.23600
C1620       C  0.57618106  0.59782190  0.12316410     0.19300
F1621       F  0.57932167  0.56358233  0.13173819    -0.13600
F1622       F  0.51518255  0.59197609  0.12987640    -0.15900
F1623       F  0.62998038  0.67395209  0.10162108    -0.15900
F1624       F  0.56518479  0.70321418  0.09955785    -0.13600
C1625       C  0.40153527  0.55544016  0.12009845     0.24400
C1626       C  0.38073412  0.58531883  0.11499646    -0.23700
C1627       C  0.34583387  0.58074048  0.10480998     0.19300
C1628       C  0.33114473  0.54702526  0.10277432     0.24400
C1629       C  0.35118782  0.51711974  0.11051746    -0.23600
C1630       C  0.38717626  0.52179131  0.11743014     0.19300
F1631       F  0.40837911  0.49390718  0.12332633    -0.13600
F1632       F  0.43573810  0.55877478  0.12855501    -0.15900
F1633       F  0.29680568  0.54393036  0.09478273    -0.15900
F1634       F  0.32508413  0.60897491  0.09900256    -0.13600
C1635       C  0.38752727  0.68951101  0.01379678     0.24400
C1636       C  0.41474361  0.70883136  0.02812287    -0.23700
C1637       C  0.43863390  0.72671274  0.00854646     0.19300
C1638       C  0.43520608  0.72573217  0.97542113     0.24400
C1639       C  0.40788340  0.70651909  0.96090083    -0.23600
C1640       C  0.38419775  0.68823066  0.98063475     0.19300
F1641       F  0.35759665  0.66908993  0.96800798    -0.13600
F1642       F  0.36446530  0.67110948  0.03187710    -0.15900
F1643       F  0.45889802  0.74368377  0.95767687    -0.15900
F1644       F  0.46498134  0.74595437  0.02147347    -0.13600
C1645       C  0.48140989  0.75269377  0.23554762     0.24400
C1646       C  0.50021720  0.73892196  0.20964827    -0.23700
C1647       C  0.53526576  0.72902454  0.21409954     0.19300
C1648       C  0.55005172  0.72905415  0.24448625     0.24400
C1649       C  0.53002739  0.73873064  0.27108662    -0.23600
C1650       C  0.49625589  0.75248986  0.26624881     0.19300
F1651       F  0.47640885  0.76208238  0.29151776    -0.13600
F1652       F  0.44746733  0.76250169  0.23176191    -0.15900
F1653       F  0.58288450  0.71613485  0.24834397    -0.15900
F1654       F  0.55400237  0.71575261  0.18945821    -0.13600
C1655       C  0.32988088  0.65993694  0.22182722     0.24400
C1656       C  0.36388207  0.67416116  0.22148234    -0.23700
C1657       C  0.38134091  0.68020230  0.25054140     0.19300
C1658       C  0.36725156  0.66747560  0.27881980     0.24400
C1659       C  0.33556036  0.64898343  0.27827731    -0.23600
C1660       C  0.31575279  0.64756149  0.25027358     0.19300
F1661       F  0.28353702  0.63257194  0.25027191    -0.13600
F1662       F  0.31175879  0.65483611  0.19442406    -0.15900
F1663       F  0.38624769  0.66995580  0.30607822    -0.15900
F1664       F  0.41328747  0.69591133  0.25130734    -0.13600
loop_ 
_geom_bond_atom_site_label_1 
_geom_bond_atom_site_label_2 
_geom_bond_distance 
_geom_bond_site_symmetry_2 
_ccdc_geom_bond_type 
O1           C16   1.267       .  A
O1           Al9   1.901       .  S
C2           O12   1.256       .  A
C2            O3   1.265       .  A
C2         C1656   1.471       .  S
O3           Al5   1.921       .  S
O4            C6   1.253       .  A
O4           Al5   1.881       .  S
Al5          O13   1.897       .  S
Al5          O15   1.925       .  S
Al5          O14   1.778       .  S
C6           O19   1.264       .  A
C6         C1606   1.472       .  S
O7           C17   1.266       .  A
O7           Al9   1.928       .  S
O8           C21   1.258       .  A
O8          Al18   1.878       .  S
Al9          O22   1.960       .  S
Al9          O19   1.943       .  S
Al9          O14   1.786       .  S
O10          C17   1.264       .  A
O10         Al18   1.918       .  S
O11          C20   1.263       .  A
O11         Al18   1.922       .  S
O12         Al18   1.866       .  S
O13          C20   1.257       .  A
O14         Al18   1.769       .  S
O15          C16   1.269       .  A
C16        C1636   1.484       .  S
C17        C1646   1.475       .  S
C20        C1626   1.486       .  S
C21          O22   1.271       .  A
C21        C1616   1.493       .  S
O23          C38   1.263       .  A
O23         Al31   1.913       .  S
C24          O34   1.264       .  A
C24          O25   1.264       .  A
C24        C1576   1.470       .  S
O25         Al27   1.914       .  S
O26          C28   1.258       .  A
O26         Al27   1.884       .  S
Al27         O35   1.894       .  S
Al27         O37   1.903       .  S
Al27         O36   1.773       .  S
C28          O41   1.265       .  A
C28        C1566   1.485       .  S
O29          C39   1.261       .  A
O29         Al31   1.921       .  S
O30          C43   1.267       .  A
O30         Al40   1.901       .  S
Al31         O44   1.932       .  S
Al31         O41   1.929       .  S
Al31         O36   1.783       .  S
O32          C39   1.259       .  A
O32         Al40   1.909       .  S
O33          C42   1.264       .  A
O33         Al40   1.935       .  S
O34         Al40   1.916       .  S
O35          C42   1.258       .  A
O36         Al40   1.787       .  S
O37          C38   1.261       .  A
C38        C1586   1.488       .  S
C39        C1556   1.474       .  S
C42        C1596   1.494       .  S
C43          O44   1.270       .  A
C43        C1639   1.493       .  S
O45          C60   1.263       .  A
O45         Al53   1.876       .  S
C46          O56   1.255       .  A
C46          O47   1.267       .  A
C46        C1536   1.476       .  S
O47         Al49   1.934       .  S
O48          C50   1.254       .  A
O48         Al49   1.879       .  S
Al49         O57   1.902       .  S
Al49         O59   1.930       .  S
Al49         O58   1.776       .  S
C50          O63   1.264       .  A
C50        C1509   1.473       .  S
O51          C61   1.263       .  A
O51         Al53   1.917       .  S
O52          C65   1.256       .  A
O52         Al62   1.873       .  S
Al53         O66   1.962       .  S
Al53         O63   1.940       .  S
Al53         O58   1.786       .  S
O54          C61   1.265       .  A
O54         Al62   1.924       .  S
O55          C64   1.261       .  A
O55         Al62   1.909       .  S
O56         Al62   1.852       .  S
O57          C64   1.258       .  A
O58         Al62   1.762       .  S
O59          C60   1.271       .  A
C60        C1526   1.477       .  S
C61        C1546   1.472       .  S
C64        C1619   1.483       .  S
C65          O66   1.272       .  A
C65        C1516   1.490       .  S
O67          C82   1.264       .  A
O67         Al75   1.918       .  S
C68          O78   1.262       .  A
C68          O69   1.261       .  A
C68        C1476   1.464       .  S
O69         Al71   1.895       .  S
O70          C72   1.258       .  A
O70         Al71   1.887       .  S
Al71         O79   1.894       .  S
Al71         O81   1.901       .  S
Al71         O80   1.773       .  S
C72          O85   1.261       .  A
C72        C1486   1.470       .  S
O73          C83   1.260       .  A
O73         Al75   1.912       .  S
O74          C87   1.265       .  A
O74         Al84   1.898       .  S
Al75         O88   1.907       .  S
Al75         O85   1.909       .  S
Al75         O80   1.786       .  S
O76          C83   1.260       .  A
O76         Al84   1.909       .  S
O77          C86   1.265       .  A
O77         Al84   1.935       .  S
O78         Al84   1.916       .  S
O79          C86   1.260       .  A
O80         Al84   1.787       .  S
O81          C82   1.260       .  A
C82        C1499   1.485       .  S
C83        C1469   1.470       .  S
C86        C1589   1.494       .  S
C87          O88   1.265       .  A
C87        C1529   1.482       .  S
O89         C104   1.261       .  A
O89         Al97   1.895       .  S
C90         O100   1.258       .  A
C90          O91   1.264       .  A
C90        C1446   1.458       .  S
O91         Al93   1.917       .  S
O92          C94   1.254       .  A
O92         Al93   1.866       .  S
Al93        O101   1.898       .  S
Al93        O103   1.910       .  S
Al93        O102   1.779       .  S
C94         O107   1.266       .  A
C94        C1416   1.472       .  S
O95         C105   1.264       .  A
O95         Al97   1.929       .  S
O96         C109   1.260       .  A
O96        Al106   1.879       .  S
Al97        O110   1.947       .  S
Al97        O107   1.945       .  S
Al97        O102   1.781       .  S
O98         C105   1.261       .  A
O98        Al106   1.912       .  S
O99         C108   1.264       .  A
O99        Al106   1.922       .  S
O100       Al106   1.879       .  S
O101        C108   1.258       .  A
O102       Al106   1.767       .  S
O103        C104   1.265       .  A
C104       C1436   1.484       .  S
C105       C1459   1.477       .  S
C108       C1519   1.481       .  S
C109        O110   1.271       .  A
C109       C1426   1.488       .  S
O111        C126   1.265       .  A
O111       Al119   1.919       .  S
C112        O122   1.262       .  A
C112        O113   1.261       .  A
C112       C1386   1.472       .  S
O113       Al115   1.904       .  S
O114        C116   1.259       .  A
O114       Al115   1.893       .  S
Al115       O123   1.900       .  S
Al115       O125   1.908       .  S
Al115       O124   1.773       .  S
C116        O129   1.258       .  A
C116       C1396   1.460       .  S
O117        C127   1.261       .  A
O117       Al119   1.909       .  S
O118        C131   1.262       .  A
O118       Al128   1.895       .  S
Al119       O132   1.904       .  S
Al119       O129   1.900       .  S
Al119       O124   1.791       .  S
O120        C127   1.261       .  A
O120       Al128   1.908       .  S
O121        C130   1.264       .  A
O121       Al128   1.925       .  S
O122       Al128   1.918       .  S
O123        C130   1.261       .  A
O124       Al128   1.787       .  S
O125        C126   1.262       .  A
C126       C1409   1.489       .  S
C127       C1379   1.467       .  S
C130       C1496   1.494       .  S
C131        O132   1.263       .  A
C131       C1439   1.478       .  S
O133        C148   1.266       .  A
O133       Al141   1.903       .  S
C134        O144   1.258       .  A
C134        O135   1.264       .  A
C134       C1366   1.470       .  S
O135       Al137   1.917       .  S
O136        C138   1.254       .  A
O136       Al137   1.873       .  S
Al137       O145   1.897       .  S
Al137       O147   1.918       .  S
Al137       O146   1.782       .  S
C138        O151   1.265       .  A
C138       C1339   1.476       .  S
O139        C149   1.265       .  A
O139       Al141   1.935       .  S
O140        C153   1.259       .  A
O140       Al150   1.883       .  S
Al141       O154   1.960       .  S
Al141       O151   1.945       .  S
Al141       O146   1.783       .  S
O142        C149   1.261       .  A
O142       Al150   1.913       .  S
O143        C152   1.260       .  A
O143       Al150   1.907       .  S
O144       Al150   1.873       .  S
O145        C152   1.258       .  A
O146       Al150   1.772       .  S
O147        C148   1.265       .  A
C148       C1349   1.486       .  S
C149       C1356   1.480       .  S
C152       C1429   1.475       .  S
C153        O154   1.273       .  A
C153       C1629   1.495       .  S
O155        C170   1.264       .  A
O155       Al163   1.911       .  S
C156        O166   1.262       .  A
C156        O157   1.261       .  A
C156       C1326   1.470       .  S
O157       Al159   1.902       .  S
O158        C160   1.257       .  A
O158       Al159   1.893       .  S
Al159       O167   1.897       .  S
Al159       O169   1.907       .  S
Al159       O168   1.775       .  S
C160        O173   1.260       .  A
C160       C1316   1.466       .  S
O161        C171   1.260       .  A
O161       Al163   1.906       .  S
O162        C175   1.266       .  A
O162       Al172   1.907       .  S
Al163       O176   1.913       .  S
Al163       O173   1.915       .  S
Al163       O168   1.791       .  S
O164        C171   1.261       .  A
O164       Al172   1.909       .  S
O165        C174   1.264       .  A
O165       Al172   1.931       .  S
O166       Al172   1.915       .  S
O167        C174   1.260       .  A
O168       Al172   1.790       .  S
O169        C170   1.263       .  A
C170       C1599   1.482       .  S
C171       C1306   1.466       .  S
C174       C1406   1.496       .  S
C175        O176   1.265       .  A
C175       C1346   1.489       .  S
O177        C192   1.263       .  A
O177       Al185   1.895       .  S
C178        O188   1.259       .  A
C178        O179   1.267       .  A
C178       C1449   1.472       .  S
O179       Al181   1.931       .  S
O180        C182   1.255       .  A
O180       Al181   1.873       .  S
Al181       O189   1.899       .  S
Al181       O191   1.926       .  S
Al181       O190   1.780       .  S
C182        O195   1.268       .  A
C182       C1266   1.485       .  S
O183        C193   1.262       .  A
O183       Al185   1.919       .  S
O184        C197   1.259       .  A
O184       Al194   1.880       .  S
Al185       O198   1.958       .  S
Al185       O195   1.954       .  S
Al185       O190   1.784       .  S
O186        C193   1.262       .  A
O186       Al194   1.921       .  S
O187        C196   1.262       .  A
O187       Al194   1.915       .  S
O188       Al194   1.871       .  S
O189        C196   1.258       .  A
O190       Al194   1.773       .  S
O191        C192   1.267       .  A
C192       C1299   1.490       .  S
C193       C1549   1.474       .  S
C196       C1286   1.481       .  S
C197        O198   1.273       .  A
C197       C1276   1.492       .  S
O199        C214   1.267       .  A
O199       Al207   1.920       .  S
C200        O210   1.261       .  A
C200        O201   1.260       .  A
C200       C1389   1.470       .  S
O201       Al203   1.900       .  S
O202        C204   1.256       .  A
O202       Al203   1.884       .  S
Al203       O211   1.888       .  S
Al203       O213   1.907       .  S
Al203       O212   1.774       .  S
C204        O217   1.261       .  A
C204       C1489   1.470       .  S
O205        C215   1.264       .  A
O205       Al207   1.919       .  S
O206        C219   1.264       .  A
O206       Al216   1.904       .  S
Al207       O220   1.923       .  S
Al207       O217   1.922       .  S
Al207       O212   1.790       .  S
O208        C215   1.261       .  A
O208       Al216   1.907       .  S
O209        C218   1.265       .  A
O209       Al216   1.926       .  S
O210       Al216   1.917       .  S
O211        C218   1.257       .  A
O212       Al216   1.787       .  S
O213        C214   1.262       .  A
C214       C1246   1.488       .  S
C215       C1236   1.471       .  S
C218       C1256   1.490       .  S
C219        O220   1.265       .  A
C219       C1296   1.492       .  S
O221        C236   1.266       .  A
O221       Al229   1.908       .  S
C222        O232   1.258       .  A
C222        O223   1.259       .  A
C222       C1539   1.451       .  S
O223       Al225   1.903       .  S
O224        C226   1.256       .  A
O224       Al225   1.877       .  S
Al225       O233   1.902       .  S
Al225       O235   1.911       .  S
Al225       O234   1.781       .  S
C226        O239   1.264       .  A
C226       C1209   1.474       .  S
O227        C237   1.265       .  A
O227       Al229   1.931       .  S
O228        C241   1.260       .  A
O228       Al238   1.885       .  S
Al229       O242   1.943       .  S
Al229       O239   1.935       .  S
Al229       O234   1.787       .  S
O230        C237   1.261       .  A
O230       Al238   1.907       .  S
O231        C240   1.261       .  A
O231       Al238   1.914       .  S
O232       Al238   1.886       .  S
O233        C240   1.261       .  A
O234       Al238   1.772       .  S
O235        C236   1.264       .  A
C236       C1226   1.491       .  S
C237       C1649   1.479       .  S
C240       C1279   1.477       .  S
C241        O242   1.269       .  A
C241       C1216   1.491       .  S
O243        C258   1.260       .  A
O243       Al251   1.904       .  S
C244        O254   1.264       .  A
C244        O245   1.261       .  A
C244       C1479   1.473       .  S
O245       Al247   1.899       .  S
O246        C248   1.257       .  A
O246       Al247   1.891       .  S
Al247       O255   1.899       .  S
Al247       O257   1.896       .  S
Al247       O256   1.777       .  S
C248        O261   1.262       .  A
C248       C1569   1.470       .  S
O249        C259   1.259       .  A
O249       Al251   1.907       .  S
O250        C263   1.266       .  A
O250       Al260   1.905       .  S
Al251       O264   1.916       .  S
Al251       O261   1.922       .  S
Al251       O256   1.792       .  S
O252        C259   1.260       .  A
O252       Al260   1.908       .  S
O253        C262   1.264       .  A
O253       Al260   1.933       .  S
O254       Al260   1.924       .  S
O255        C262   1.261       .  A
O256       Al260   1.790       .  S
O257        C258   1.259       .  A
C258       C1196   1.474       .  S
C259       C1189   1.468       .  S
C262       C1249   1.495       .  S
C263        O264   1.266       .  A
C263       C1229   1.478       .  S
O265        C280   1.267       .  A
O265       Al273   1.919       .  S
C266        O276   1.259       .  A
C266        O267   1.258       .  A
C266       C1659   1.457       .  S
O267       Al269   1.905       .  S
O268        C270   1.257       .  A
O268       Al269   1.881       .  S
Al269       O277   1.902       .  S
Al269       O279   1.900       .  S
Al269       O278   1.787       .  S
C270        O283   1.265       .  A
C270       C1156   1.477       .  S
O271        C281   1.268       .  A
O271       Al273   1.941       .  S
O272        C285   1.261       .  A
O272       Al282   1.891       .  S
Al273       O286   1.938       .  S
Al273       O283   1.941       .  S
Al273       O278   1.791       .  S
O274        C281   1.261       .  A
O274       Al282   1.905       .  S
O275        C284   1.261       .  A
O275       Al282   1.909       .  S
O276       Al282   1.888       .  S
O277        C284   1.260       .  A
O278       Al282   1.773       .  S
O279        C280   1.262       .  A
C280       C1176   1.492       .  S
C281       C1359   1.485       .  S
C284       C1219   1.477       .  S
C285        O286   1.267       .  A
C285       C1166   1.494       .  S
O287        C302   1.261       .  A
O287       Al295   1.904       .  S
C288        O298   1.264       .  A
C288        O289   1.265       .  A
C288       C1579   1.470       .  S
O289       Al291   1.917       .  S
O290        C292   1.258       .  A
O290       Al291   1.880       .  S
Al291       O299   1.891       .  S
Al291       O301   1.906       .  S
Al291       O300   1.776       .  S
C292        O305   1.264       .  A
C292       C1319   1.481       .  S
O293        C303   1.258       .  A
O293       Al295   1.914       .  S
O294        C307   1.266       .  A
O294       Al304   1.894       .  S
Al295       O308   1.926       .  S
Al295       O305   1.920       .  S
Al295       O300   1.786       .  S
O296        C303   1.256       .  A
O296       Al304   1.898       .  S
O297        C306   1.262       .  A
O297       Al304   1.925       .  S
O298       Al304   1.917       .  S
O299        C306   1.258       .  A
O300       Al304   1.789       .  S
O301        C302   1.260       .  A
C302       C1146   1.484       .  S
C303       C1136   1.467       .  S
C306       C1199   1.488       .  S
C307        O308   1.269       .  A
C307       C1179   1.478       .  S
O309        C324   1.264       .  A
O309       Al317   1.910       .  S
C310        O320   1.258       .  A
C310        O311   1.259       .  A
C310       C1369   1.456       .  S
O311       Al313   1.908       .  S
O312        C314   1.256       .  A
O312       Al313   1.867       .  S
Al313       O321   1.904       .  S
Al313       O323   1.900       .  S
Al313       O322   1.786       .  S
C314        O327   1.266       .  A
C314       C1119   1.472       .  S
O315        C325   1.265       .  A
O315       Al317   1.932       .  S
O316        C329   1.260       .  A
O316       Al326   1.883       .  S
Al317       O330   1.936       .  S
Al317       O327   1.942       .  S
Al317       O322   1.790       .  S
O318        C325   1.260       .  A
O318       Al326   1.906       .  S
O319        C328   1.263       .  A
O319       Al326   1.916       .  S
O320       Al326   1.886       .  S
O321        C328   1.261       .  A
O322       Al326   1.768       .  S
O323        C324   1.261       .  A
C324       C1126   1.487       .  S
C325       C1456   1.480       .  S
C328       C1169   1.478       .  S
C329        O330   1.268       .  A
C329       C1289   1.490       .  S
O331        C346   1.262       .  A
O331       Al339   1.906       .  S
C332        O342   1.261       .  A
C332        O333   1.261       .  A
C332       C1329   1.465       .  S
O333       Al335   1.901       .  S
O334        C336   1.257       .  A
O334       Al335   1.881       .  S
Al335       O343   1.897       .  S
Al335       O345   1.904       .  S
Al335       O344   1.775       .  S
C336        O349   1.260       .  A
C336       C1399   1.470       .  S
O337        C347   1.259       .  A
O337       Al339   1.905       .  S
O338        C351   1.265       .  A
O338       Al348   1.898       .  S
Al339       O352   1.911       .  S
Al339       O349   1.905       .  S
Al339       O344   1.788       .  S
O340        C347   1.261       .  A
O340       Al348   1.913       .  S
O341        C350   1.265       .  A
O341       Al348   1.931       .  S
O342       Al348   1.914       .  S
O343        C350   1.260       .  A
O344       Al348   1.783       .  S
O345        C346   1.262       .  A
C346       C1259   1.483       .  S
C347       C1106   1.468       .  S
C350       C1149   1.494       .  S
C351        O352   1.264       .  A
C351       C1129   1.479       .  S
O353        C368   1.263       .  A
O353       Al361   1.882       .  S
C354        O364   1.259       .  A
C354        O355   1.265       .  A
C354       C1096   1.478       .  S
O355       Al357   1.922       .  S
O356        C358   1.256       .  A
O356       Al357   1.890       .  S
Al357       O365   1.902       .  S
Al357       O367   1.928       .  S
Al357       O366   1.779       .  S
C358        O371   1.262       .  A
C358       C1239   1.479       .  S
O359        C369   1.262       .  A
O359       Al361   1.913       .  S
O360        C373   1.260       .  A
O360       Al370   1.890       .  S
Al361       O374   1.947       .  S
Al361       O371   1.931       .  S
Al361       O366   1.784       .  S
O362        C369   1.264       .  A
O362       Al370   1.921       .  S
O363        C372   1.261       .  A
O363       Al370   1.912       .  S
O364       Al370   1.876       .  S
O365        C372   1.259       .  A
O366       Al370   1.772       .  S
O367        C368   1.269       .  A
C368       C1076   1.483       .  S
C369       C1086   1.470       .  S
C372       C1066   1.486       .  S
C373        O374   1.269       .  A
C373       C1056   1.491   1_655  S
O375        C390   1.264       .  A
O375       Al383   1.916       .  S
C376        O386   1.262       .  A
C376        O377   1.263       .  A
C376       C1016   1.469       .  S
O377       Al379   1.903       .  S
O378        C380   1.256       .  A
O378       Al379   1.887       .  S
Al379       O387   1.897       .  S
Al379       O389   1.897       .  S
Al379       O388   1.778       .  S
C380        O393   1.260       .  A
C380       C1026   1.465       .  S
O381        C391   1.263       .  A
O381       Al383   1.920       .  S
O382        C395   1.265       .  A
O382       Al392   1.899       .  S
Al383       O396   1.914       .  S
Al383       O393   1.918       .  S
Al383       O388   1.792       .  S
O384        C391   1.259       .  A
O384       Al392   1.905       .  S
O385        C394   1.261       .  A
O385       Al392   1.922       .  S
O386       Al392   1.911       .  S
O387        C394   1.258       .  A
O388       Al392   1.791       .  S
O389        C390   1.261       .  A
C390       C1036   1.481   1_655  S
C391       C1269   1.474       .  S
C394       C1049   1.491       .  S
C395        O396   1.266       .  A
C395       C1079   1.482       .  S
O397        C412   1.264       .  A
O397       Al405   1.910       .  S
C398        O408   1.258       .  A
C398        O399   1.259       .  A
C398       C1009   1.459       .  S
O399       Al401   1.910       .  S
O400        C402   1.258       .  A
O400       Al401   1.881       .  S
Al401       O409   1.903       .  S
Al401       O411   1.904       .  S
Al401       O410   1.784       .  S
C402        O415   1.265       .  A
C402       C1139   1.471       .  S
O403        C413   1.265       .  A
O403       Al405   1.932       .  S
O404        C417   1.260       .  A
O404       Al414   1.887       .  S
Al405       O418   1.933       .  S
Al405       O415   1.935       .  S
Al405       O410   1.786       .  S
O406        C413   1.262       .  A
O406       Al414   1.913       .  S
O407        C416   1.265       .  A
O407       Al414   1.920       .  S
O408       Al414   1.880       .  S
O409        C416   1.261       .  A
O410       Al414   1.770       .  S
O411        C412   1.262       .  A
C412        C986   1.488       .  S
C413        C996   1.482       .  S
C416        C979   1.485       .  S
C417        O418   1.267       .  A
C417        C966   1.490   1_455  S
O419        C434   1.262       .  A
O419       Al427   1.903       .  S
C420        O430   1.262       .  A
C420        O421   1.263       .  A
C420        C936   1.469       .  S
O421       Al423   1.908       .  S
O422        C424   1.258       .  A
O422       Al423   1.887       .  S
Al423       O431   1.897       .  S
Al423       O433   1.911       .  S
Al423       O432   1.778       .  S
C424        O437   1.260       .  A
C424        C929   1.470       .  S
O425        C435   1.259       .  A
O425       Al427   1.909       .  S
O426        C439   1.265       .  A
O426       Al436   1.898       .  S
Al427       O440   1.917       .  S
Al427       O437   1.907       .  S
Al427       O432   1.788       .  S
O428        C435   1.259       .  A
O428       Al436   1.908       .  S
O429        C438   1.263       .  A
O429       Al436   1.920       .  S
O430       Al436   1.916       .  S
O431        C438   1.259       .  A
O432       Al436   1.786       .  S
O433        C434   1.262       .  A
C434        C946   1.480   1_455  S
C435       C1159   1.468       .  S
C438        C956   1.490       .  S
C439        O440   1.265       .  A
C439        C989   1.482       .  S
O441        C456   1.264       .  A
O441       Al449   1.896       .  S
C442        O452   1.258       .  A
C442        O443   1.264       .  A
C442        C906   1.468       .  S
O443       Al445   1.918       .  S
O444        C446   1.255       .  A
O444       Al445   1.877       .  S
Al445       O453   1.901       .  S
Al445       O455   1.920       .  S
Al445       O454   1.777       .  S
C446        O459   1.266       .  A
C446       C1186   1.474       .  S
O447        C457   1.263       .  A
O447       Al449   1.923       .  S
O448        C461   1.258       .  A
O448       Al458   1.876       .  S
Al449       O462   1.957       .  S
Al449       O459   1.945       .  S
Al449       O454   1.781       .  S
O450        C457   1.261       .  A
O450       Al458   1.905       .  S
O451        C460   1.261       .  A
O451       Al458   1.908       .  S
O452       Al458   1.874       .  S
O453        C460   1.259       .  A
O454       Al458   1.768       .  S
O455        C456   1.266       .  A
C456        C896   1.491       .  S
C457        C916   1.469       .  S
C460        C969   1.476       .  S
C461        O462   1.272       .  A
C461       C1069   1.492   1_565  S
O463        C478   1.265       .  A
O463       Al471   1.912       .  S
C464        O474   1.262       .  A
C464        O465   1.258       .  A
C464        C879   1.473       .  S
O465       Al467   1.895       .  S
O466        C468   1.256       .  A
O466       Al467   1.889       .  S
Al467       O475   1.891       .  S
Al467       O477   1.904       .  S
Al467       O476   1.775       .  S
C468        O481   1.259       .  A
C468        C886   1.462       .  S
O469        C479   1.262       .  A
O469       Al471   1.909       .  S
O470        C483   1.265       .  A
O470       Al480   1.912       .  S
Al471       O484   1.904       .  S
Al471       O481   1.914       .  S
Al471       O476   1.792       .  S
O472        C479   1.262       .  A
O472       Al480   1.905       .  S
O473        C482   1.264       .  A
O473       Al480   1.925       .  S
O474       Al480   1.923       .  S
O475        C482   1.259       .  A
O476       Al480   1.787       .  S
O477        C478   1.262       .  A
C478       C1046   1.482   1_565  S
C479       C1206   1.465       .  S
C482        C949   1.492       .  S
C483        O484   1.262       .  A
C483        C899   1.480       .  S
O485        C500   1.264       .  A
O485       Al493   1.894       .  S
C486        O496   1.256       .  A
C486        O487   1.262       .  A
C486        C866   1.454       .  S
O487       Al489   1.921       .  S
O488        C490   1.255       .  A
O488       Al489   1.870       .  S
Al489       O497   1.905       .  S
Al489       O499   1.914       .  S
Al489       O498   1.779       .  S
C490        O503   1.267       .  A
C490       C1109   1.476       .  S
O491        C501   1.264       .  A
O491       Al493   1.923       .  S
O492        C505   1.258       .  A
O492       Al502   1.877       .  S
Al493       O506   1.956       .  S
Al493       O503   1.948       .  S
Al493       O498   1.787       .  S
O494        C501   1.262       .  A
O494       Al502   1.908       .  S
O495        C504   1.261       .  A
O495       Al502   1.911       .  S
O496       Al502   1.876       .  S
O497        C504   1.260       .  A
O498       Al502   1.765       .  S
O499        C500   1.266       .  A
C500        C849   1.485       .  S
C501        C859   1.475       .  S
C504       C1059   1.474       .  S
C505        O506   1.272       .  A
C505        C976   1.489   1_545  S
O507        C522   1.260       .  A
O507       Al515   1.904       .  S
C508        O518   1.262       .  A
C508        O509   1.261       .  A
C508        C836   1.476       .  S
O509       Al511   1.916       .  S
O510        C512   1.260       .  A
O510       Al511   1.886       .  S
Al511       O519   1.890       .  S
Al511       O521   1.902       .  S
Al511       O520   1.778       .  S
C512        O525   1.264       .  A
C512        C829   1.476       .  S
O513        C523   1.257       .  A
O513       Al515   1.902       .  S
O514        C527   1.264       .  A
O514       Al524   1.893       .  S
Al515       O528   1.913       .  S
Al515       O525   1.916       .  S
Al515       O520   1.790       .  S
O516        C523   1.258       .  A
O516       Al524   1.896       .  S
O517        C526   1.266       .  A
O517       Al524   1.935       .  S
O518       Al524   1.923       .  S
O519        C526   1.260       .  A
O520       Al524   1.786       .  S
O521        C522   1.259       .  A
C522        C959   1.478   1_545  S
C523       C1116   1.462       .  S
C526       C1039   1.491       .  S
C527        O528   1.265       .  A
C527        C846   1.472       .  S
O529        C544   1.263       .  A
O529       Al537   1.914       .  S
C530        O540   1.262       .  A
C530        O531   1.261       .  A
C530       C1019   1.465       .  S
O531       Al533   1.902       .  S
O532        C534   1.258       .  A
O532       Al533   1.877       .  S
Al533       O541   1.899       .  S
Al533       O543   1.892       .  S
Al533       O542   1.775       .  S
C534        O547   1.263       .  A
C534        C889   1.477       .  S
O535        C545   1.259       .  A
O535       Al537   1.910       .  S
O536        C549   1.268       .  A
O536       Al546   1.898       .  S
Al537       O550   1.921       .  S
Al537       O547   1.918       .  S
Al537       O542   1.791       .  S
O538        C545   1.257       .  A
O538       Al546   1.899       .  S
O539        C548   1.264       .  A
O539       Al546   1.938       .  S
O540       Al546   1.916       .  S
O541        C548   1.260       .  A
O542       Al546   1.786       .  S
O543        C544   1.259       .  A
C544        C799   1.482   1_545  S
C545       C1419   1.466       .  S
C548        C806   1.497       .  S
C549        O550   1.268       .  A
C549        C816   1.489       .  S
O551        C566   1.266       .  A
O551       Al559   1.906       .  S
C552        O562   1.257       .  A
C552        O553   1.260       .  A
C552       C1099   1.458       .  S
O553       Al555   1.916       .  S
O554        C556   1.256       .  A
O554       Al555   1.880       .  S
Al555       O563   1.905       .  S
Al555       O565   1.911       .  S
Al555       O564   1.783       .  S
C556        O569   1.266       .  A
C556       C1376   1.470       .  S
O557        C567   1.264       .  A
O557       Al559   1.924       .  S
O558        C571   1.259   1_545  A
O558       Al568   1.886       .  S
Al559       O572   1.955       .  S
Al559       O569   1.943       .  S
Al559       O564   1.787       .  S
O560        C567   1.260       .  A
O560       Al568   1.902       .  S
O561        C570   1.262       .  A
O561       Al568   1.905       .  S
O562       Al568   1.885       .  S
O563        C570   1.261       .  A
O564       Al568   1.767       .  S
O565        C566   1.265       .  A
C566        C819   1.480       .  S
C567        C919   1.473       .  S
C570        C786   1.477       .  S
C571        O572   1.271   1_565  A
C571        C776   1.497       .  S
O573        C588   1.265       .  A
O573       Al581   1.924       .  S
C574        O584   1.264       .  A
C574        O575   1.259       .  A
C574        C876   1.472       .  S
O575       Al577   1.901       .  S
O576        C578   1.259       .  A
O576       Al577   1.888       .  S
Al577       O585   1.891       .  S
Al577       O587   1.904       .  S
Al577       O586   1.772       .  S
C578        O591   1.260       .  A
C578        C926   1.464       .  S
O579        C589   1.260       .  A
O579       Al581   1.911       .  S
O580        C593   1.265       .  A
O580       Al590   1.905       .  S
Al581       O594   1.909       .  S
Al581       O591   1.905       .  S
Al581       O586   1.790       .  S
O582        C589   1.261       .  A
O582       Al590   1.907       .  S
O583        C592   1.264       .  A
O583       Al590   1.928       .  S
O584       Al590   1.927       .  S
O585        C592   1.261       .  A
O586       Al590   1.786       .  S
O587        C588   1.261       .  A
C588        C756   1.494   1_655  S
C589       C1506   1.469       .  S
C592        C796   1.490       .  S
C593        O594   1.263       .  A
C593        C766   1.489       .  S
O595        C610   1.262       .  A
O595       Al603   1.906       .  S
C596        O606   1.260       .  A
C596        O597   1.260       .  A
C596        C909   1.457       .  S
O597       Al599   1.907       .  S
O598        C600   1.256       .  A
O598       Al599   1.872       .  S
Al599       O607   1.907       .  S
Al599       O609   1.896       .  S
Al599       O608   1.789       .  S
C600        O613   1.268       .  A
C600       C1466   1.478       .  S
O601        C611   1.264       .  A
O601       Al603   1.937       .  S
O602        C615   1.261       .  A
O602       Al612   1.878       .  S
Al603       O616   1.949       .  S
Al603       O613   1.948       .  S
Al603       O608   1.793       .  S
O604        C611   1.258       .  A
O604       Al612   1.904       .  S
O605        C614   1.262       .  A
O605       Al612   1.919       .  S
O606       Al612   1.886       .  S
O607        C614   1.260       .  A
O608       Al612   1.772       .  S
O609        C610   1.260       .  A
C610        C769   1.481       .  S
C611        C999   1.483       .  S
C614        C779   1.487       .  S
C615        O616   1.271       .  A
C615        C746   1.493   1_655  S
O617        C632   1.263       .  A
O617       Al625   1.908       .  S
C618        O628   1.263       .  A
C618        O619   1.264       .  A
C618        C939   1.470       .  S
O619       Al621   1.909       .  S
O620        C622   1.255       .  A
O620       Al621   1.888       .  S
Al621       O629   1.897       .  S
Al621       O631   1.912       .  S
Al621       O630   1.772       .  S
C622        O635   1.259       .  A
C622        C826   1.466       .  S
O623        C633   1.263       .  A
O623       Al625   1.922       .  S
O624        C637   1.266       .  A
O624       Al634   1.901       .  S
Al625       O638   1.919       .  S
Al625       O635   1.916       .  S
Al625       O630   1.791       .  S
O626        C633   1.262       .  A
O626       Al634   1.911       .  S
O627        C636   1.263       .  A
O627       Al634   1.933       .  S
O628       Al634   1.914       .  S
O629        C636   1.258       .  A
O630       Al634   1.785       .  S
O631        C632   1.265       .  A
C632        C729   1.484   1_565  S
C633       C1609   1.475       .  S
C636        C759   1.496       .  S
C637        O638   1.267       .  A
C637        C736   1.483       .  S
O639        C654   1.264       .  A
O639       Al647   1.899       .  S
C640        O650   1.259       .  A
C640        O641   1.264       .  A
C640       C1006   1.461       .  S
O641       Al643   1.911       .  S
O642        C644   1.253       .  A
O642       Al643   1.880       .  S
Al643       O651   1.906       .  S
Al643       O653   1.912       .  S
Al643       O652   1.780       .  S
C644        O657   1.265       .  A
C644       C1559   1.474       .  S
O645        C655   1.264       .  A
O645       Al647   1.930       .  S
O646        C659   1.262       .  A
O646       Al656   1.884       .  S
Al647       O660   1.957       .  S
Al647       O657   1.942       .  S
Al647       O652   1.784       .  S
O648        C655   1.260       .  A
O648       Al656   1.904       .  S
O649        C658   1.260       .  A
O649       Al656   1.909       .  S
O650       Al656   1.872       .  S
O651        C658   1.259       .  A
O652       Al656   1.770       .  S
O653        C654   1.266       .  A
C654        C739   1.485       .  S
C655        C856   1.473       .  S
C658        C749   1.481       .  S
C659        O660   1.273       .  A
C659        C716   1.493   1_565  S
O661        C676   1.263       .  A
O661       Al669   1.920       .  S
C662        O672   1.265       .  A
C662        O663   1.264       .  A
C662        C839   1.477       .  S
O663       Al665   1.921       .  S
O664        C666   1.257       .  A
O664       Al665   1.872       .  S
Al665       O673   1.886       .  S
Al665       O675   1.903       .  S
Al665       O674   1.773       .  S
C666        O679   1.267       .  A
C666       C1029   1.485       .  S
O667        C677   1.260       .  A
O667       Al669   1.915       .  S
O668        C681   1.268       .  A
O668       Al678   1.901       .  S
Al669       O682   1.931       .  S
Al669       O679   1.935       .  S
Al669       O674   1.787       .  S
O670        C677   1.258       .  A
O670       Al678   1.907       .  S
O671        C680   1.266       .  A
O671       Al678   1.944       .  S
O672       Al678   1.924       .  S
O673        C680   1.257       .  A
O674       Al678   1.787       .  S
O675        C676   1.260       .  A
C676        C809   1.494   1_455  S
C677       C1336   1.471       .  S
C680        C726   1.493       .  S
C681        O682   1.270       .  A
C681        C709   1.492       .  S
O683        C698   1.265       .  A
O683       Al691   1.897       .  S
C684        O694   1.257       .  A
C684        O685   1.265       .  A
C684        C869   1.480       .  S
O685       Al687   1.931       .  S
O686        C688   1.254       .  A
O686       Al687   1.870       .  S
Al687       O695   1.892       .  S
Al687       O697   1.928       .  S
Al687       O696   1.775       .  S
C688        O701   1.265       .  A
C688       C1309   1.474       .  S
O689        C699   1.262       .  A
O689       Al691   1.913       .  S
O690        C703   1.257       .  A
O690       Al700   1.871       .  S
Al691       O704   1.958       .  S
Al691       O701   1.944       .  S
Al691       O696   1.789       .  S
O692        C699   1.266       .  A
O692       Al700   1.927       .  S
O693        C702   1.264       .  A
O693       Al700   1.924       .  S
O694       Al700   1.867       .  S
O695        C702   1.258       .  A
O696       Al700   1.768       .  S
O697        C698   1.269       .  A
C698        C706   1.487       .  S
C699       C1089   1.472       .  S
C702        C719   1.479       .  S
C703        O704   1.271       .  A
C703        C789   1.491   1_455  S
C705        C706   1.408       .  A
C705        C710   1.399   1_556  A
C705        F712   1.358       .  S
C706        C707   1.408       .  A
C707        C708   1.402   1_556  A
C707        F714   1.358       .  S
C708        C709   1.413       .  A
C708        F713   1.358       .  S
C709        C710   1.409       .  A
C710        F711   1.358       .  S
C715        C716   1.414       .  A
C715        C720   1.400       .  A
C715        F722   1.358   1_545  S
C716        C717   1.411       .  A
C717        C718   1.402       .  A
C717        F724   1.358       .  S
C718        C719   1.407       .  A
C718        F723   1.358       .  S
C719        C720   1.402       .  A
C720        F721   1.358       .  S
C725        C726   1.412       .  A
C725        C730   1.406       .  A
C725        F732   1.358       .  S
C726        C727   1.412       .  A
C727        C728   1.396       .  A
C727        F734   1.358       .  S
C728        C729   1.404       .  A
C728        F733   1.358   1_545  S
C729        C730   1.408       .  A
C730        F731   1.358       .  S
C735        C736   1.410       .  A
C735        C740   1.400   1_554  A
C735        F742   1.359       .  S
C736        C737   1.405       .  A
C737        C738   1.396   1_554  A
C737        F744   1.357       .  S
C738        C739   1.410       .  A
C738        F743   1.358       .  S
C739        C740   1.409       .  A
C740        F741   1.358       .  S
C745        C746   1.413       .  A
C745        C750   1.396       .  A
C745        F752   1.358       .  S
C746        C747   1.412       .  A
C747        C748   1.405       .  A
C747        F754   1.358       .  S
C748        C749   1.408       .  A
C748        F753   1.358       .  S
C749        C750   1.403       .  A
C750        F751   1.358       .  S
C755        C756   1.409       .  A
C755        C760   1.408       .  A
C755        F762   1.357       .  S
C756        C757   1.411       .  A
C757        C758   1.398       .  A
C757        F764   1.359       .  S
C758        C759   1.410       .  A
C758        F763   1.358       .  S
C759        C760   1.412       .  A
C760        F761   1.357       .  S
C765        C766   1.415       .  A
C765        C770   1.400   1_554  A
C765        F772   1.358       .  S
C766        C767   1.408       .  A
C767        C768   1.398   1_554  A
C767        F774   1.358       .  S
C768        C769   1.409       .  A
C768        F773   1.358       .  S
C769        C770   1.403       .  A
C770        F771   1.358       .  S
C775        C776   1.414       .  A
C775        C780   1.399       .  A
C775        F782   1.358       .  S
C776        C777   1.411       .  A
C777        C778   1.406       .  A
C777        F784   1.357       .  S
C778        C779   1.409       .  A
C778        F783   1.358       .  S
C779        C780   1.405       .  A
C780        F781   1.358       .  S
C785        C786   1.402       .  A
C785        C790   1.393       .  A
C785        F792   1.359       .  S
C786        C787   1.407       .  A
C787        C788   1.405       .  A
C787        F794   1.358       .  S
C788        C789   1.411       .  A
C788        F793   1.357       .  S
C789        C790   1.414       .  A
C790        F791   1.358       .  S
C795        C796   1.410       .  A
C795        C800   1.396       .  A
C795        F802   1.358       .  S
C796        C797   1.414       .  A
C797        C798   1.404       .  A
C797        F804   1.358       .  S
C798        C799   1.406       .  A
C798        F803   1.358       .  S
C799        C800   1.407       .  A
C800        F801   1.358       .  S
C805        C806   1.413       .  A
C805        C810   1.408       .  A
C805        F812   1.358       .  S
C806        C807   1.410       .  A
C807        C808   1.399       .  A
C807        F814   1.358       .  S
C808        C809   1.410       .  A
C808        F813   1.358   1_655  S
C809        C810   1.409       .  A
C810        F811   1.358       .  S
C815        C816   1.414       .  A
C815        C820   1.401   1_554  A
C815        F822   1.358       .  S
C816        C817   1.409       .  A
C817        C818   1.396   1_554  A
C817        F824   1.358       .  S
C818        C819   1.408       .  A
C818        F823   1.358       .  S
C819        C820   1.404       .  A
C820        F821   1.358       .  S
C825        C826   1.402       .  A
C825        C830   1.397       .  A
C825        F832   1.354       .  S
C826        C827   1.402   1_565  A
C827        C828   1.394       .  A
C827        F834   1.359       .  S
C828        C829   1.408       .  A
C828        F833   1.355       .  S
C829        C830   1.409   1_545  A
C830        F831   1.358       .  S
C835        C836   1.403       .  A
C835        C840   1.404       .  A
C835        F842   1.358       .  S
C836        C837   1.405       .  A
C837        C838   1.405       .  A
C837        F844   1.356       .  S
C838        C839   1.404       .  A
C838        F843   1.357       .  S
C839        C840   1.405       .  A
C840        F841   1.357       .  S
C845        C846   1.402       .  A
C845        C850   1.396       .  A
C845        F852   1.358       .  S
C846        C847   1.405       .  A
C847        C848   1.398       .  A
C847        F854   1.358       .  S
C848        C849   1.411       .  A
C848        F853   1.358       .  S
C849        C850   1.412       .  A
C850        F851   1.358       .  S
C855        C856   1.402   1_545  A
C855        C860   1.393       .  A
C855        F862   1.359       .  S
C856        C857   1.408       .  A
C857        C858   1.409       .  A
C857        F864   1.357       .  S
C858        C859   1.406   1_565  A
C858        F863   1.357       .  S
C859        C860   1.404       .  A
C860        F861   1.355       .  S
C865        C866   1.402       .  A
C865        C870   1.400       .  A
C865        F872   1.358       .  S
C866        C867   1.395       .  A
C867        C868   1.387       .  A
C867        F874   1.359       .  S
C868        C869   1.412       .  A
C868        F873   1.355       .  S
C869        C870   1.411       .  A
C870        F871   1.358       .  S
C875        C876   1.406       .  A
C875        C880   1.403       .  A
C875        F882   1.355       .  S
C876        C877   1.403       .  A
C877        C878   1.401       .  A
C877        F884   1.358       .  S
C878        C879   1.406       .  A
C878        F883   1.356       .  S
C879        C880   1.403       .  A
C880        F881   1.358       .  S
C885        C886   1.401   1_545  A
C885        C890   1.393       .  A
C885        F892   1.359       .  S
C886        C887   1.402       .  A
C887        C888   1.399       .  A
C887        F894   1.357       .  S
C888        C889   1.410   1_565  A
C888        F893   1.358       .  S
C889        C890   1.409       .  A
C890        F891   1.358       .  S
C895        C896   1.410       .  A
C895        C900   1.397       .  A
C895        F902   1.358       .  S
C896        C897   1.414       .  A
C897        C898   1.402       .  A
C897        F904   1.358       .  S
C898        C899   1.404       .  A
C898        F903   1.358       .  S
C899        C900   1.407       .  A
C900        F901   1.358       .  S
C905        C906   1.408       .  A
C905        C910   1.391       .  A
C905        F912   1.357       .  S
C906        C907   1.406       .  A
C907        C908   1.393       .  A
C907        F914   1.358       .  S
C908        C909   1.400       .  A
C908        F913   1.355       .  S
C909        C910   1.401       .  A
C910        F911   1.359       .  S
C915        C916   1.401   1_545  A
C915        C920   1.395       .  A
C915        F922   1.359       .  S
C916        C917   1.407       .  A
C917        C918   1.407       .  A
C917        F924   1.357       .  S
C918        C919   1.404   1_565  A
C918        F923   1.357       .  S
C919        C920   1.404       .  A
C920        F921   1.354       .  S
C925        C926   1.402       .  A
C925        C930   1.395       .  A
C925        F932   1.355       .  S
C926        C927   1.404   1_655  A
C927        C928   1.393       .  A
C927        F934   1.359       .  S
C928        C929   1.405       .  A
C928        F933   1.353       .  S
C929        C930   1.406   1_455  A
C930        F931   1.358       .  S
C935        C936   1.404       .  A
C935        C940   1.402       .  A
C935        F942   1.355       .  S
C936        C937   1.401       .  A
C937        C938   1.400       .  A
C937        F944   1.358       .  S
C938        C939   1.404       .  A
C938        F943   1.354       .  S
C939        C940   1.402       .  A
C940        F941   1.357       .  S
C945        C946   1.405       .  A
C945        C950   1.401       .  A
C945        F952   1.358       .  S
C946        C947   1.405       .  A
C947        C948   1.400       .  A
C947        F954   1.358   1_655  S
C948        C949   1.412       .  A
C948        F953   1.358       .  S
C949        C950   1.412       .  A
C950        F951   1.358       .  S
C955        C956   1.411       .  A
C955        C960   1.400       .  A
C955        F962   1.358       .  S
C956        C957   1.413       .  A
C957        C958   1.400       .  A
C957        F964   1.358       .  S
C958        C959   1.404       .  A
C958        F963   1.358       .  S
C959        C960   1.406       .  A
C960        F961   1.358       .  S
C965        C966   1.412       .  A
C965        C970   1.402       .  A
C965        F972   1.357       .  S
C966        C967   1.412       .  A
C967        C968   1.397       .  A
C967        F974   1.358       .  S
C968        C969   1.404       .  A
C968        F973   1.358       .  S
C969        C970   1.405       .  A
C970        F971   1.358       .  S
C975        C976   1.408       .  A
C975        C980   1.405       .  A
C975        F982   1.358       .  S
C976        C977   1.413       .  A
C977        C978   1.396       .  A
C977        F984   1.358       .  S
C978        C979   1.405       .  A
C978        F983   1.359       .  S
C979        C980   1.410       .  A
C980        F981   1.357       .  S
C985        C986   1.409       .  A
C985        C990   1.401       .  A
C985        F992   1.358       .  S
C986        C987   1.413       .  A
C987        C988   1.397       .  A
C987        F994   1.358       .  S
C988        C989   1.404       .  A
C988        F993   1.358       .  S
C989        C990   1.409       .  A
C990        F991   1.358       .  S
C995        C996   1.402   1_655  A
C995       C1000   1.403       .  A
C995       F1002   1.358       .  S
C996        C997   1.407       .  A
C997        C998   1.407       .  A
C997       F1004   1.353       .  S
C998        C999   1.406   1_455  A
C998       F1003   1.358       .  S
C999       C1000   1.406       .  A
C1000      F1001   1.353       .  S
C1005      C1006   1.406       .  A
C1005      C1010   1.392       .  A
C1005      F1012   1.357       .  S
C1006      C1007   1.403       .  A
C1007      C1008   1.391       .  A
C1007      F1014   1.358       .  S
C1008      C1009   1.401       .  A
C1008      F1013   1.353       .  S
C1009      C1010   1.402       .  A
C1010      F1011   1.358       .  S
C1015      C1016   1.404       .  A
C1015      C1020   1.393       .  A
C1015      F1022   1.355       .  S
C1016      C1017   1.403       .  A
C1017      C1018   1.405       .  A
C1017      F1024   1.358       .  S
C1018      C1019   1.408       .  A
C1018      F1023   1.357       .  S
C1019      C1020   1.400       .  A
C1020      F1021   1.358       .  S
C1025      C1026   1.403       .  A
C1025      C1030   1.403   1_655  A
C1025      F1032   1.356       .  S
C1026      C1027   1.399   1_655  A
C1027      C1028   1.392       .  A
C1027      F1034   1.359       .  S
C1028      C1029   1.413       .  A
C1028      F1033   1.356       .  S
C1029      C1030   1.411       .  A
C1030      F1031   1.357   1_455  S
C1035      C1036   1.406       .  A
C1035      C1040   1.398       .  A
C1035      F1042   1.358       .  S
C1036      C1037   1.405       .  A
C1037      C1038   1.403       .  A
C1037      F1044   1.357       .  S
C1038      C1039   1.412       .  A
C1038      F1043   1.358       .  S
C1039      C1040   1.411       .  A
C1040      F1041   1.358       .  S
C1045      C1046   1.408       .  A
C1045      C1050   1.398       .  A
C1045      F1052   1.359   1_545  S
C1046      C1047   1.405       .  A
C1047      C1048   1.402       .  A
C1047      F1054   1.358       .  S
C1048      C1049   1.412       .  A
C1048      F1053   1.357       .  S
C1049      C1050   1.411       .  A
C1050      F1051   1.358       .  S
C1055      C1056   1.412       .  A
C1055      C1060   1.403       .  A
C1055      F1062   1.358       .  S
C1056      C1057   1.412       .  A
C1057      C1058   1.399       .  A
C1057      F1064   1.358       .  S
C1058      C1059   1.402       .  A
C1058      F1063   1.358       .  S
C1059      C1060   1.405       .  A
C1060      F1061   1.358       .  S
C1065      C1066   1.406       .  A
C1065      C1070   1.397       .  A
C1065      F1072   1.359       .  S
C1066      C1067   1.410       .  A
C1067      C1068   1.403       .  A
C1067      F1074   1.357       .  S
C1068      C1069   1.409       .  A
C1068      F1073   1.357       .  S
C1069      C1070   1.414       .  A
C1070      F1071   1.358   1_545  S
C1075      C1076   1.410       .  A
C1075      C1080   1.400       .  A
C1075      F1082   1.358       .  S
C1076      C1077   1.408       .  A
C1077      C1078   1.395       .  A
C1077      F1084   1.358       .  S
C1078      C1079   1.409       .  A
C1078      F1083   1.358       .  S
C1079      C1080   1.408       .  A
C1080      F1081   1.358       .  S
C1085      C1086   1.402   1_455  A
C1085      C1090   1.401       .  A
C1085      F1092   1.358       .  S
C1086      C1087   1.405       .  A
C1087      C1088   1.403       .  A
C1087      F1094   1.357       .  S
C1088      C1089   1.404   1_655  A
C1088      F1093   1.357       .  S
C1089      C1090   1.404       .  A
C1090      F1091   1.357       .  S
C1095      C1096   1.410       .  A
C1095      C1100   1.390       .  A
C1095      F1102   1.356       .  S
C1096      C1097   1.410       .  A
C1097      C1098   1.399       .  A
C1097      F1104   1.358       .  S
C1098      C1099   1.401       .  A
C1098      F1103   1.356       .  S
C1099      C1100   1.398       .  A
C1100      F1101   1.359       .  S
C1105      C1106   1.404       .  A
C1105      C1110   1.405       .  A
C1105      F1112   1.358       .  S
C1106      C1107   1.401       .  A
C1107      C1108   1.395       .  A
C1107      F1114   1.358       .  S
C1108      C1109   1.407       .  A
C1108      F1113   1.359       .  S
C1109      C1110   1.408       .  A
C1110      F1111   1.358       .  S
C1115      C1116   1.405       .  A
C1115      C1120   1.404       .  A
C1115      F1122   1.358       .  S
C1116      C1117   1.399       .  A
C1117      C1118   1.393       .  A
C1117      F1124   1.358       .  S
C1118      C1119   1.407       .  A
C1118      F1123   1.358       .  S
C1119      C1120   1.407       .  A
C1120      F1121   1.358       .  S
C1125      C1126   1.414       .  A
C1125      C1130   1.395       .  A
C1125      F1132   1.358       .  S
C1126      C1127   1.409       .  A
C1127      C1128   1.401       .  A
C1127      F1134   1.358       .  S
C1128      C1129   1.410       .  A
C1128      F1133   1.358       .  S
C1129      C1130   1.403       .  A
C1130      F1131   1.358       .  S
C1135      C1136   1.402       .  A
C1135      C1140   1.398       .  A
C1135      F1142   1.358       .  S
C1136      C1137   1.405       .  A
C1137      C1138   1.401       .  A
C1137      F1144   1.358       .  S
C1138      C1139   1.405       .  A
C1138      F1143   1.358       .  S
C1139      C1140   1.405       .  A
C1140      F1141   1.358       .  S
C1145      C1146   1.406       .  A
C1145      C1150   1.401       .  A
C1145      F1152   1.358       .  S
C1146      C1147   1.407       .  A
C1147      C1148   1.402       .  A
C1147      F1154   1.358       .  S
C1148      C1149   1.412       .  A
C1148      F1153   1.358       .  S
C1149      C1150   1.413       .  A
C1150      F1151   1.358       .  S
C1155      C1156   1.406       .  A
C1155      C1160   1.397       .  A
C1155      F1162   1.358       .  S
C1156      C1157   1.408       .  A
C1157      C1158   1.405       .  A
C1157      F1164   1.358       .  S
C1158      C1159   1.405       .  A
C1158      F1163   1.358       .  S
C1159      C1160   1.401       .  A
C1160      F1161   1.358       .  S
C1165      C1166   1.413       .  A
C1165      C1170   1.404       .  A
C1165      F1172   1.358       .  S
C1166      C1167   1.413       .  A
C1167      C1168   1.399       .  A
C1167      F1174   1.358       .  S
C1168      C1169   1.402       .  A
C1168      F1173   1.358       .  S
C1169      C1170   1.405       .  A
C1170      F1171   1.358       .  S
C1175      C1176   1.410       .  A
C1175      C1180   1.403       .  A
C1175      F1182   1.357       .  S
C1176      C1177   1.416       .  A
C1177      C1178   1.397       .  A
C1177      F1184   1.358       .  S
C1178      C1179   1.402       .  A
C1178      F1183   1.359       .  S
C1179      C1180   1.407       .  A
C1180      F1181   1.358       .  S
C1185      C1186   1.405       .  A
C1185      C1190   1.402       .  A
C1185      F1192   1.358       .  S
C1186      C1187   1.408       .  A
C1187      C1188   1.399       .  A
C1187      F1194   1.358       .  S
C1188      C1189   1.402       .  A
C1188      F1193   1.358       .  S
C1189      C1190   1.405       .  A
C1190      F1191   1.358       .  S
C1195      C1196   1.403       .  A
C1195      C1200   1.396       .  A
C1195      F1202   1.358       .  S
C1196      C1197   1.404       .  A
C1197      C1198   1.401       .  A
C1197      F1204   1.358       .  S
C1198      C1199   1.413       .  A
C1198      F1203   1.358       .  S
C1199      C1200   1.410       .  A
C1200      F1201   1.358       .  S
C1205      C1206   1.404       .  A
C1205      C1210   1.403       .  A
C1205      F1212   1.358       .  S
C1206      C1207   1.402       .  A
C1207      C1208   1.396       .  A
C1207      F1214   1.359       .  S
C1208      C1209   1.406       .  A
C1208      F1213   1.358       .  S
C1209      C1210   1.407       .  A
C1210      F1211   1.358       .  S
C1215      C1216   1.411       .  A
C1215      C1220   1.402       .  A
C1215      F1222   1.358       .  S
C1216      C1217   1.413       .  A
C1217      C1218   1.398       .  A
C1217      F1224   1.358       .  S
C1218      C1219   1.403       .  A
C1218      F1223   1.358       .  S
C1219      C1220   1.406       .  A
C1220      F1221   1.358       .  S
C1225      C1226   1.410       .  A
C1225      C1230   1.400       .  A
C1225      F1232   1.358       .  S
C1226      C1227   1.415       .  A
C1227      C1228   1.401       .  A
C1227      F1234   1.358       .  S
C1228      C1229   1.403       .  A
C1228      F1233   1.358       .  S
C1229      C1230   1.406       .  A
C1230      F1231   1.358       .  S
C1235      C1236   1.404       .  A
C1235      C1240   1.403       .  A
C1235      F1242   1.357       .  S
C1236      C1237   1.404       .  A
C1237      C1238   1.400       .  A
C1237      F1244   1.358       .  S
C1238      C1239   1.407       .  A
C1238      F1243   1.358       .  S
C1239      C1240   1.407       .  A
C1240      F1241   1.358       .  S
C1245      C1246   1.406       .  A
C1245      C1250   1.404       .  A
C1245      F1252   1.358       .  S
C1246      C1247   1.410       .  A
C1247      C1248   1.400       .  A
C1247      F1254   1.358       .  S
C1248      C1249   1.411       .  A
C1248      F1253   1.358       .  S
C1249      C1250   1.413       .  A
C1250      F1251   1.357       .  S
C1255      C1256   1.412       .  A
C1255      C1260   1.397       .  A
C1255      F1262   1.358       .  S
C1256      C1257   1.411       .  A
C1257      C1258   1.402       .  A
C1257      F1264   1.358       .  S
C1258      C1259   1.407       .  A
C1258      F1263   1.357       .  S
C1259      C1260   1.407       .  A
C1260      F1261   1.359       .  S
C1265      C1266   1.408       .  A
C1265      C1270   1.408       .  A
C1265      F1272   1.357       .  S
C1266      C1267   1.410       .  A
C1267      C1268   1.398       .  A
C1267      F1274   1.359       .  S
C1268      C1269   1.402       .  A
C1268      F1273   1.358       .  S
C1269      C1270   1.406       .  A
C1270      F1271   1.358       .  S
C1275      C1276   1.415       .  A
C1275      C1280   1.401       .  A
C1275      F1282   1.358       .  S
C1276      C1277   1.410       .  A
C1277      C1278   1.401       .  A
C1277      F1284   1.357       .  S
C1278      C1279   1.405       .  A
C1278      F1283   1.358       .  S
C1279      C1280   1.403       .  A
C1280      F1281   1.358       .  S
C1285      C1286   1.408       .  A
C1285      C1290   1.403       .  A
C1285      F1292   1.358       .  S
C1286      C1287   1.404       .  A
C1287      C1288   1.396       .  A
C1287      F1294   1.358       .  S
C1288      C1289   1.412       .  A
C1288      F1293   1.358       .  S
C1289      C1290   1.411       .  A
C1290      F1291   1.358       .  S
C1295      C1296   1.409       .  A
C1295      C1300   1.401       .  A
C1295      F1302   1.358       .  S
C1296      C1297   1.411       .  A
C1297      C1298   1.401       .  A
C1297      F1304   1.358       .  S
C1298      C1299   1.409       .  A
C1298      F1303   1.358       .  S
C1299      C1300   1.410       .  A
C1300      F1301   1.358       .  S
C1305      C1306   1.401       .  A
C1305      C1310   1.397       .  A
C1305      F1312   1.358       .  S
C1306      C1307   1.404       .  A
C1307      C1308   1.402       .  A
C1307      F1314   1.358       .  S
C1308      C1309   1.406       .  A
C1308      F1313   1.358       .  S
C1309      C1310   1.408       .  A
C1310      F1311   1.359       .  S
C1315      C1316   1.402       .  A
C1315      C1320   1.400       .  A
C1315      F1322   1.356       .  S
C1316      C1317   1.401       .  A
C1317      C1318   1.393       .  A
C1317      F1324   1.359       .  S
C1318      C1319   1.410       .  A
C1318      F1323   1.356       .  S
C1319      C1320   1.410       .  A
C1320      F1321   1.358       .  S
C1325      C1326   1.404       .  A
C1325      C1330   1.396       .  A
C1325      F1332   1.355       .  S
C1326      C1327   1.402       .  A
C1327      C1328   1.403       .  A
C1327      F1334   1.357       .  S
C1328      C1329   1.406       .  A
C1328      F1333   1.357       .  S
C1329      C1330   1.400       .  A
C1330      F1331   1.358       .  S
C1335      C1336   1.402       .  A
C1335      C1340   1.399       .  A
C1335      F1342   1.358       .  S
C1336      C1337   1.406       .  A
C1337      C1338   1.404       .  A
C1337      F1344   1.358       .  S
C1338      C1339   1.406       .  A
C1338      F1343   1.358       .  S
C1339      C1340   1.407       .  A
C1340      F1341   1.358       .  S
C1345      C1346   1.412       .  A
C1345      C1350   1.397   1_556  A
C1345      F1352   1.358       .  S
C1346      C1347   1.409       .  A
C1347      C1348   1.403   1_556  A
C1347      F1354   1.358       .  S
C1348      C1349   1.412       .  A
C1348      F1353   1.358       .  S
C1349      C1350   1.405       .  A
C1350      F1351   1.358       .  S
C1355      C1356   1.408       .  A
C1355      C1360   1.412       .  A
C1355      F1362   1.357       .  S
C1356      C1357   1.402       .  A
C1357      C1358   1.398       .  A
C1357      F1364   1.359       .  S
C1358      C1359   1.406       .  A
C1358      F1363   1.353       .  S
C1359      C1360   1.408       .  A
C1360      F1361   1.357       .  S
C1365      C1366   1.408       .  A
C1365      C1370   1.391       .  A
C1365      F1372   1.357       .  S
C1366      C1367   1.407       .  A
C1367      C1368   1.395       .  A
C1367      F1374   1.358       .  S
C1368      C1369   1.400       .  A
C1368      F1373   1.355       .  S
C1369      C1370   1.399       .  A
C1370      F1371   1.359       .  S
C1375      C1376   1.406       .  A
C1375      C1380   1.400       .  A
C1375      F1382   1.358       .  S
C1376      C1377   1.404       .  A
C1377      C1378   1.400       .  A
C1377      F1384   1.358       .  S
C1378      C1379   1.404       .  A
C1378      F1383   1.358       .  S
C1379      C1380   1.403       .  A
C1380      F1381   1.358       .  S
C1385      C1386   1.403       .  A
C1385      C1390   1.398       .  A
C1385      F1392   1.353       .  S
C1386      C1387   1.403       .  A
C1387      C1388   1.403       .  A
C1387      F1394   1.358       .  S
C1388      C1389   1.406       .  A
C1388      F1393   1.356       .  S
C1389      C1390   1.401       .  A
C1390      F1391   1.358       .  S
C1395      C1396   1.400       .  A
C1395      C1400   1.394       .  A
C1395      F1402   1.354       .  S
C1396      C1397   1.402       .  A
C1397      C1398   1.392       .  A
C1397      F1404   1.359       .  S
C1398      C1399   1.407       .  A
C1398      F1403   1.357       .  S
C1399      C1400   1.408       .  A
C1400      F1401   1.358       .  S
C1405      C1406   1.413       .  A
C1405      C1410   1.406       .  A
C1405      F1412   1.358       .  S
C1406      C1407   1.411       .  A
C1407      C1408   1.399       .  A
C1407      F1414   1.358       .  S
C1408      C1409   1.408       .  A
C1408      F1413   1.358       .  S
C1409      C1410   1.408       .  A
C1410      F1411   1.358       .  S
C1415      C1416   1.405       .  A
C1415      C1420   1.402       .  A
C1415      F1422   1.358       .  S
C1416      C1417   1.407       .  A
C1417      C1418   1.397       .  A
C1417      F1424   1.359       .  S
C1418      C1419   1.401       .  A
C1418      F1423   1.358       .  S
C1419      C1420   1.405       .  A
C1420      F1421   1.358       .  S
C1425      C1426   1.413       .  A
C1425      C1430   1.396       .  A
C1425      F1432   1.358       .  S
C1426      C1427   1.411       .  A
C1427      C1428   1.401       .  A
C1427      F1434   1.358       .  S
C1428      C1429   1.405       .  A
C1428      F1433   1.358       .  S
C1429      C1430   1.402       .  A
C1430      F1431   1.359       .  S
C1435      C1436   1.410       .  A
C1435      C1440   1.397   1_554  A
C1435      F1442   1.357       .  S
C1436      C1437   1.411       .  A
C1437      C1438   1.396   1_554  A
C1437      F1444   1.358       .  S
C1438      C1439   1.406       .  A
C1438      F1443   1.358       .  S
C1439      C1440   1.408       .  A
C1440      F1441   1.359       .  S
C1445      C1446   1.404       .  A
C1445      C1450   1.397       .  A
C1445      F1452   1.355       .  S
C1446      C1447   1.397       .  A
C1447      C1448   1.388       .  A
C1447      F1454   1.359       .  S
C1448      C1449   1.408       .  A
C1448      F1453   1.352       .  S
C1449      C1450   1.406       .  A
C1450      F1451   1.358       .  S
C1455      C1456   1.405       .  A
C1455      C1460   1.399       .  A
C1455      F1462   1.353       .  S
C1456      C1457   1.406       .  A
C1457      C1458   1.408       .  A
C1457      F1464   1.357       .  S
C1458      C1459   1.407       .  A
C1458      F1463   1.355       .  S
C1459      C1460   1.402       .  A
C1460      F1461   1.358       .  S
C1465      C1466   1.408       .  A
C1465      C1470   1.397       .  A
C1465      F1472   1.359       .  S
C1466      C1467   1.407       .  A
C1467      C1468   1.406       .  A
C1467      F1474   1.357       .  S
C1468      C1469   1.406       .  A
C1468      F1473   1.358       .  S
C1469      C1470   1.401       .  A
C1470      F1471   1.358       .  S
C1475      C1476   1.398       .  A
C1475      C1480   1.390       .  A
C1475      F1482   1.359       .  S
C1476      C1477   1.408       .  A
C1477      C1478   1.407       .  A
C1477      F1484   1.357       .  S
C1478      C1479   1.405       .  A
C1478      F1483   1.357       .  S
C1479      C1480   1.404       .  A
C1480      F1481   1.352       .  S
C1485      C1486   1.405       .  A
C1485      C1490   1.394       .  A
C1485      F1492   1.358       .  S
C1486      C1487   1.406       .  A
C1487      C1488   1.398       .  A
C1487      F1494   1.358       .  S
C1488      C1489   1.406       .  A
C1488      F1493   1.358       .  S
C1489      C1490   1.404       .  A
C1490      F1491   1.356       .  S
C1495      C1496   1.414       .  A
C1495      C1500   1.404       .  A
C1495      F1502   1.358       .  S
C1496      C1497   1.411       .  A
C1497      C1498   1.399       .  A
C1497      F1504   1.358       .  S
C1498      C1499   1.408       .  A
C1498      F1503   1.358       .  S
C1499      C1500   1.406       .  A
C1500      F1501   1.358       .  S
C1505      C1506   1.403       .  A
C1505      C1510   1.400       .  A
C1505      F1512   1.358       .  S
C1506      C1507   1.404       .  A
C1507      C1508   1.401       .  A
C1507      F1514   1.358       .  S
C1508      C1509   1.405       .  A
C1508      F1513   1.358       .  S
C1509      C1510   1.407       .  A
C1510      F1511   1.358       .  S
C1515      C1516   1.409       .  A
C1515      C1520   1.404       .  A
C1515      F1522   1.358       .  S
C1516      C1517   1.414       .  A
C1517      C1518   1.395       .  A
C1517      F1524   1.358       .  S
C1518      C1519   1.402       .  A
C1518      F1523   1.358       .  S
C1519      C1520   1.409       .  A
C1520      F1521   1.358       .  S
C1525      C1526   1.406       .  A
C1525      C1530   1.394   1_554  A
C1525      F1532   1.359       .  S
C1526      C1527   1.407       .  A
C1527      C1528   1.398   1_554  A
C1527      F1534   1.358       .  S
C1528      C1529   1.408       .  A
C1528      F1533   1.358       .  S
C1529      C1530   1.410       .  A
C1530      F1531   1.358       .  S
C1535      C1536   1.411       .  A
C1535      C1540   1.401       .  A
C1535      F1542   1.358       .  S
C1536      C1537   1.413       .  A
C1537      C1538   1.383       .  A
C1537      F1544   1.356       .  S
C1538      C1539   1.394       .  A
C1538      F1543   1.359       .  S
C1539      C1540   1.401       .  A
C1540      F1541   1.357       .  S
C1545      C1546   1.402       .  A
C1545      C1550   1.403       .  A
C1545      F1552   1.357       .  S
C1546      C1547   1.404       .  A
C1547      C1548   1.402       .  A
C1547      F1554   1.357       .  S
C1548      C1549   1.404       .  A
C1548      F1553   1.358       .  S
C1549      C1550   1.404       .  A
C1550      F1551   1.355       .  S
C1555      C1556   1.405       .  A
C1555      C1560   1.404       .  A
C1555      F1562   1.358       .  S
C1556      C1557   1.405       .  A
C1557      C1558   1.400       .  A
C1557      F1564   1.358       .  S
C1558      C1559   1.403       .  A
C1558      F1563   1.358       .  S
C1559      C1560   1.407       .  A
C1560      F1561   1.358       .  S
C1565      C1566   1.411       .  A
C1565      C1570   1.402       .  A
C1565      F1572   1.358       .  S
C1566      C1567   1.410       .  A
C1567      C1568   1.394       .  A
C1567      F1574   1.355       .  S
C1568      C1569   1.400       .  A
C1568      F1573   1.358       .  S
C1569      C1570   1.404       .  A
C1570      F1571   1.356       .  S
C1575      C1576   1.404       .  A
C1575      C1580   1.401       .  A
C1575      F1582   1.357       .  S
C1576      C1577   1.402       .  A
C1577      C1578   1.402       .  A
C1577      F1584   1.358       .  S
C1578      C1579   1.405       .  A
C1578      F1583   1.357       .  S
C1579      C1580   1.402       .  A
C1580      F1581   1.358       .  S
C1585      C1586   1.408       .  A
C1585      C1590   1.397       .  A
C1585      F1592   1.358       .  S
C1586      C1587   1.408       .  A
C1587      C1588   1.405       .  A
C1587      F1594   1.358       .  S
C1588      C1589   1.413       .  A
C1588      F1593   1.358       .  S
C1589      C1590   1.411       .  A
C1590      F1591   1.358       .  S
C1595      C1596   1.413       .  A
C1595      C1600   1.404       .  A
C1595      F1602   1.358       .  S
C1596      C1597   1.412       .  A
C1597      C1598   1.399       .  A
C1597      F1604   1.358       .  S
C1598      C1599   1.405       .  A
C1598      F1603   1.358       .  S
C1599      C1600   1.406       .  A
C1600      F1601   1.358       .  S
C1605      C1606   1.407       .  A
C1605      C1610   1.405       .  A
C1605      F1612   1.358       .  S
C1606      C1607   1.403       .  A
C1607      C1608   1.398       .  A
C1607      F1614   1.358       .  S
C1608      C1609   1.406       .  A
C1608      F1613   1.358       .  S
C1609      C1610   1.405       .  A
C1610      F1611   1.358       .  S
C1615      C1616   1.414       .  A
C1615      C1620   1.395       .  A
C1615      F1622   1.358       .  S
C1616      C1617   1.411       .  A
C1617      C1618   1.406       .  A
C1617      F1624   1.358       .  S
C1618      C1619   1.409       .  A
C1618      F1623   1.358       .  S
C1619      C1620   1.403       .  A
C1620      F1621   1.358       .  S
C1625      C1626   1.404       .  A
C1625      C1630   1.399       .  A
C1625      F1632   1.358       .  S
C1626      C1627   1.409       .  A
C1627      C1628   1.405       .  A
C1627      F1634   1.358       .  S
C1628      C1629   1.410       .  A
C1628      F1633   1.357       .  S
C1629      C1630   1.415       .  A
C1630      F1631   1.358       .  S
C1635      C1636   1.408       .  A
C1635      C1640   1.401   1_554  A
C1635      F1642   1.358       .  S
C1636      C1637   1.405       .  A
C1637      C1638   1.400   1_554  A
C1637      F1644   1.358       .  S
C1638      C1639   1.413       .  A
C1638      F1643   1.358       .  S
C1639      C1640   1.412       .  A
C1640      F1641   1.358       .  S
C1645      C1646   1.408       .  A
C1645      C1650   1.409       .  A
C1645      F1652   1.357       .  S
C1646      C1647   1.402       .  A
C1647      C1648   1.396       .  A
C1647      F1654   1.359       .  S
C1648      C1649   1.406       .  A
C1648      F1653   1.356       .  S
C1649      C1650   1.406       .  A
C1650      F1651   1.357       .  S
C1655      C1656   1.406       .  A
C1655      C1660   1.395       .  A
C1655      F1662   1.357       .  S
C1656      C1657   1.410       .  A
C1657      C1658   1.393       .  A
C1657      F1664   1.359       .  S
C1658      C1659   1.400       .  A
C1658      F1663   1.359       .  S
C1659      C1660   1.400       .  A
C1660      F1661   1.356       .  S
