geometry optimzed in LAMMPS
_audit_creation_date              2020-12-01 
_audit_creation_method            'lammps2cif' 
_symmetry_space_group_name_H-M    'P1' 
_symmetry_Int_Tables_number       1 
_symmetry_cell_setting            triclinic 
loop_ 
_symmetry_equiv_pos_as_xyz 
  x,y,z 
_cell_length_a                    36.77219697 
_cell_length_b                    36.53612711527534 
_cell_length_c                    45.42307100415301 
_cell_angle_alpha                 90.43716758355261 
_cell_angle_beta                  90.3772096558847 
_cell_angle_gamma                 89.62353355781065 
loop_ 
_atom_site_label 
_atom_site_type_symbol 
_atom_site_fract_x 
_atom_site_fract_y 
_atom_site_fract_z 
_atom_site_charge 
Fe1        Fe  0.92889920  0.08343945  0.05956015     1.65800
Fe2        Fe  0.84319410  0.10573001  0.08007543     1.73200
Fe3        Fe  0.85796702  0.02753250  0.04176782     1.54400
O4          O  0.87162113  0.04747321  0.50114114    -0.81900
O5          O  0.81179433  0.06288919  0.09648500    -0.80200
O6          O  0.92353210  0.07551019  0.51409262    -0.84400
O7          O  0.93874178  0.03153733  0.07211674    -0.79200
O8          O  0.80766029  0.05139128  0.03150920    -0.81000
O9          O  0.87310489  0.10343038  0.11772796    -0.83700
C10         C  0.93889756  0.00854896  0.05160167     0.97000
C11         C  0.90122278  0.06309156  0.49477937     1.04500
O12         O  0.87683493  0.07261972  0.06042472    -1.12700
O13         O  0.86913623  0.15295074  0.06653688    -0.75200
O14         O  0.92280184  0.13690302  0.04794272    -0.78600
O15         O  0.90798495  0.99666652  0.04320745    -0.79300
C16         C  0.89830460  0.16039303  0.05312975     0.95900
O17         O  0.93104390  0.09689292  0.10334726    -0.77300
O18         O  0.81168417  0.11032096  0.04317848    -0.82500
C19         C  0.81276678  0.02799379  0.09786996     0.98500
C20         C  0.79642932  0.08431795  0.02961978     1.04500
O21         O  0.83472156  0.00878490  0.08182094    -0.78100
C22         C  0.90692907  0.10133533  0.12284126     1.02800
Fe23       Fe  0.58008639  0.08832074  0.21463746     1.65800
Fe24       Fe  0.66565031  0.10847207  0.19472704     1.73200
Fe25       Fe  0.65095084  0.03111946  0.23190510     1.54400
O26         O  0.63435931  0.05224974  0.27118427    -0.81900
O27         O  0.69616699  0.06466242  0.17850327    -0.80200
O28         O  0.58074269  0.07916971  0.26028654    -0.84400
O29         O  0.56824152  0.03597285  0.20409575    -0.79200
O30         O  0.70296486  0.05302493  0.24025630    -0.81000
O31         O  0.63652168  0.10734892  0.15702534    -0.83700
C32         C  0.56886719  0.01384208  0.22493043     0.97000
C33         C  0.60568797  0.06952681  0.27861030     1.04500
O34         O  0.63177826  0.07605879  0.21342531    -1.12700
O35         O  0.64131373  0.15653869  0.20909760    -0.75200
O36         O  0.58656838  0.14217182  0.22554973    -0.78600
O37         O  0.60011751  0.00225090  0.23316947    -0.79300
C38         C  0.61196730  0.16466933  0.22207089     0.95900
O39         O  0.57833711  0.09897204  0.16963893    -0.77300
O40         O  0.69567100  0.11172625  0.23182486    -0.82500
C41         C  0.69494094  0.02983606  0.17659332     0.98500
C42         C  0.71294146  0.08613899  0.24382035     1.04500
O43         O  0.67172304  0.01101021  0.19126349    -0.78100
C44         C  0.60316533  0.10397365  0.15060782     1.02800
Fe45       Fe  0.08463754  0.93313635  0.47074438     1.65800
Fe46       Fe  0.16750803  0.91637141  0.44235716     1.73200
Fe47       Fe  0.15558440  0.98711434  0.98657054     1.54400
O48         O  0.10407713  0.01494752  0.98794477    -0.81900
O49         O  0.20261138  0.91130159  0.47719904    -0.80200
O50         O  0.06945533  0.98445675  0.46057774    -0.84400
O51         O  0.08591140  0.93854777  0.01301644    -0.79200
O52         O  0.17231972  0.01385126  0.44434331    -0.81000
O53         O  0.14506821  0.86650907  0.45484099    -0.83700
C54         C  0.11009433  0.94793801  0.03195354     0.97000
C55         C  0.07038450  0.00656889  0.48168291     1.04500
O56         O  0.13530753  0.94693125  0.46582344    -1.12700
O57         O  0.13297565  0.92020014  0.40675036    -0.75200
O58         O  0.07742721  0.92064504  0.42672845    -0.78600
O59         O  0.13936820  0.96451060  0.02548857    -0.79300
C60         C  0.09846616  0.91958344  0.40468639     0.95900
O61         O  0.09593994  0.88067555  0.48072396    -0.77300
O62         O  0.19580397  0.96138496  0.42661405    -0.82500
C63         C  0.22027299  0.93430530  0.99688387     0.98500
C64         C  0.19423955  0.99625850  0.42699997     1.04500
O65         O  0.20815973  0.96675883  0.99434973    -0.78100
C66         C  0.11875484  0.85766892  0.47120939     1.02800
Fe67       Fe  0.42702158  0.93300289  0.31396823     1.65800
Fe68       Fe  0.34026864  0.91355017  0.33179789     1.73200
Fe69       Fe  0.35796047  0.99059343  0.29379047     1.54400
O70         O  0.40877476  0.01919140  0.29417830    -0.81900
O71         O  0.30924170  0.91152803  0.29450543    -0.80200
O72         O  0.43905559  0.98532736  0.32401988    -0.84400
O73         O  0.42920624  0.94145571  0.26867136    -0.79200
O74         O  0.33514437  0.01163220  0.33368503    -0.81000
O75         O  0.36376445  0.86536719  0.31655010    -0.83700
C76         C  0.40666259  0.95205624  0.24896012     0.97000
C77         C  0.43950944  0.00681790  0.30277857     1.04500
O78         O  0.37529128  0.94553468  0.31344218    -1.12700
O79         O  0.36945437  0.91203458  0.37031497    -0.75200
O80         O  0.42698581  0.92349543  0.35846449    -0.78600
O81         O  0.37691141  0.96862944  0.25507304    -0.79300
C82         C  0.40249059  0.91690763  0.37729952     0.95900
O83         O  0.42038632  0.87901057  0.30427958    -0.77300
O84         O  0.31118382  0.95846792  0.34857388    -0.82500
C85         C  0.29440019  0.93781462  0.28105600     0.98500
C86         C  0.31253625  0.99344523  0.34956101     1.04500
O87         O  0.30636266  0.97021374  0.28338724    -0.78100
C88         C  0.39437211  0.85682025  0.30575951     1.02800
Fe89       Fe  0.42944226  0.93428249  0.06116459     1.65800
Fe90       Fe  0.41306288  0.84848825  0.08396893     1.73200
Fe91       Fe  0.48745133  0.86540700  0.04276839     1.54400
O92         O  0.46411456  0.88141736  0.50452765    -0.81900
O93         O  0.45808310  0.81917428  0.09883965    -0.80200
O94         O  0.43798929  0.93517469  0.51673173    -0.84400
O95         O  0.48071004  0.94799127  0.07181369    -0.79200
O96         O  0.46650720  0.81305921  0.03437267    -0.81000
O97         O  0.41602441  0.87984030  0.12167728    -0.83700
C98         C  0.50185346  0.94913127  0.05054070     0.97000
C99         C  0.44885819  0.91149321  0.49779959     1.04500
O100        O  0.44306690  0.88278619  0.06273881    -1.12700
O101        O  0.36367161  0.87193229  0.07141215    -0.75200
O102        O  0.37672662  0.92507061  0.05077660    -0.78600
O103        O  0.51412004  0.91826421  0.04125605    -0.79300
C104        C  0.35454423  0.90025133  0.05708833     0.95900
O105        O  0.41882511  0.93733471  0.10553534    -0.77300
O106        O  0.40855971  0.81569308  0.04747167    -0.82500
C107        C  0.49264777  0.82121027  0.09896010     0.98500
C108        C  0.43408614  0.80108870  0.03285129     1.04500
O109        O  0.50975278  0.84445003  0.08283874    -0.78100
C110        C  0.41685984  0.91422135  0.12614278     1.02800
Fe111      Fe  0.43592943  0.58973119  0.21642298     1.65800
Fe112      Fe  0.41512128  0.67525353  0.19363701     1.73200
Fe113      Fe  0.49068424  0.66105429  0.23496619     1.54400
O114        O  0.47046260  0.64248601  0.27404112    -0.81900
O115        O  0.45854058  0.70644431  0.17858005    -0.80200
O116        O  0.44702067  0.58848896  0.26119709    -0.84400
O117        O  0.48783410  0.57814552  0.20513407    -0.79200
O118        O  0.46672251  0.71208001  0.24427352    -0.81000
O119        O  0.41888511  0.64395343  0.15623536    -0.83700
C120        C  0.51088486  0.57917149  0.22550563     0.97000
C121        C  0.45655356  0.61176970  0.28064612     1.04500
O122        O  0.44700076  0.64189498  0.21493889    -1.12700
O123        O  0.36718171  0.64989520  0.20624399    -0.75200
O124        O  0.38291216  0.59740439  0.22738966    -0.78600
O125        O  0.52100407  0.61066030  0.23465703    -0.79300
C126        C  0.35950823  0.62146090  0.22078230     0.95900
O127        O  0.42339131  0.58648962  0.17252896    -0.77300
O128        O  0.40928319  0.70799335  0.22989042    -0.82500
C129        C  0.49322559  0.70572654  0.17889274     0.98500
C130        C  0.43390392  0.72328687  0.24506784     1.04500
O131        O  0.51131202  0.68335243  0.19533156    -0.78100
C132        C  0.42024752  0.60958048  0.15202371     1.02800
Fe133      Fe  0.57653114  0.09070779  0.46403859     1.65800
Fe134      Fe  0.59698737  0.17609281  0.44254931     1.73200
Fe135      Fe  0.53484588  0.16627597  0.98735512     1.54400
O136        O  0.50548393  0.11545417  0.98887776    -0.81900
O137        O  0.60272347  0.20808432  0.47952224    -0.80200
O138        O  0.52388660  0.08016230  0.45602351    -0.84400
O139        O  0.58311110  0.09246149  0.00787659    -0.79200
O140        O  0.50014051  0.18382458  0.44384494    -0.81000
O141        O  0.64544753  0.14996636  0.45415562    -0.83700
C142        C  0.57640901  0.11624963  0.02800129     0.97000
C143        C  0.50450174  0.08009247  0.47838485     1.04500
O144        O  0.56552443  0.14283932  0.46314893    -1.12700
O145        O  0.59290382  0.14559310  0.40462807    -0.75200
O146        O  0.58358320  0.08785355  0.41921504    -0.78600
O147        O  0.56016083  0.14666254  0.02381867    -0.79300
C148        C  0.58841217  0.11169746  0.39945922     0.95900
O149        O  0.63072022  0.09581562  0.47159548    -0.77300
O150        O  0.55297331  0.20732400  0.42831382    -0.82500
C151        C  0.58939619  0.22860818  0.99932861     0.98500
C152        C  0.51831975  0.20668294  0.42808469     1.04500
O153        O  0.55676898  0.21783790  0.99694523    -0.78100
C154        C  0.65412677  0.11979984  0.46601007     1.02800
Fe155      Fe  0.59411038  0.43425533  0.31217182     1.65800
Fe156      Fe  0.61195873  0.34902732  0.33690198     1.73200
Fe157      Fe  0.53822070  0.36410932  0.29376813     1.54400
O158        O  0.51033624  0.41604965  0.29055188    -0.81900
O159        O  0.61769031  0.31425635  0.30155178    -0.80200
O160        O  0.54208916  0.44685911  0.32176922    -0.84400
O161        O  0.58481185  0.43308658  0.26689523    -0.79200
O162        O  0.51510276  0.34536635  0.33330076    -0.81000
O163        O  0.66148720  0.37287258  0.32432020    -0.83700
C164        C  0.57535520  0.40866827  0.24807679     0.97000
C165        C  0.52110459  0.44713413  0.30008182     1.04500
O166        O  0.58189403  0.38249781  0.31429675    -1.12700
O167        O  0.60746063  0.38186133  0.37370224    -0.75200
O168        O  0.60420465  0.43893118  0.35649049    -0.78600
O169        O  0.56136199  0.37843611  0.25518656    -0.79300
C170        C  0.60555998  0.41633242  0.37748556     0.95900
O171        O  0.64758979  0.42581481  0.30302248    -0.77300
O172        O  0.56626777  0.31993781  0.35138342    -0.82500
C173        C  0.59222222  0.29895478  0.28733765     0.98500
C174        C  0.53153251  0.32214502  0.35005582     1.04500
O175        O  0.55991691  0.31167868  0.28739960    -0.78100
C176        C  0.67035040  0.40127365  0.30992319     1.02800
Fe177      Fe  0.08026231  0.93228155  0.21805483     1.65800
Fe178      Fe  0.10541304  0.84714123  0.19692093     1.73200
Fe179      Fe  0.02884701  0.85882746  0.23645822     1.54400
O180        O  0.04768309  0.87859108  0.27555697    -0.81900
O181        O  0.06396983  0.81266808  0.18228149    -0.80200
O182        O  0.06962231  0.93336476  0.26353634    -0.84400
O183        O  0.02797029  0.93983891  0.20629016    -0.79200
O184        O  0.05530941  0.80920833  0.24606182    -0.81000
O185        O  0.09953211  0.87614523  0.15893183    -0.83700
C186        C  0.00629524  0.93953956  0.22733121     0.97000
C187        C  0.06019678  0.90980514  0.28269601     1.04500
O188        O  0.07188890  0.87960923  0.21721689    -1.12700
O189        O  0.15187502  0.87567172  0.20947726    -0.75200
O190        O  0.13388045  0.92847244  0.22949142    -0.78600
O191        O  0.99631069  0.90811804  0.23612427    -0.79300
C192        C  0.15814794  0.90493448  0.22381364     0.95900
O193        O  0.09138247  0.93434410  0.17339503    -0.77300
O194        O  0.11291116  0.81668716  0.23382410    -0.82500
C195        C  0.02932653  0.81194926  0.18157885     0.98500
C196        C  0.08867619  0.79990548  0.24783693     1.04500
O197        O  0.00985816  0.83474261  0.19661522    -0.78100
C198        C  0.09538931  0.90994031  0.15351965     1.02800
Fe199      Fe  0.09394886  0.58575861  0.05326431     1.65800
Fe200      Fe  0.11255359  0.67026853  0.07949761     1.73200
Fe201      Fe  0.03489434  0.65615964  0.04195400     1.54400
O202        O  0.05117473  0.64772439  0.49959360    -0.81900
O203        O  0.06846127  0.69906286  0.09775304    -0.80200
O204        O  0.07788425  0.59333904  0.50773797    -0.84400
O205        O  0.04323585  0.57049806  0.06468658    -0.79200
O206        O  0.05498456  0.70934139  0.03786475    -0.81000
O207        O  0.11261751  0.63751891  0.11554404    -0.83700
C208        C  0.01889406  0.57249531  0.04538972     0.97000
C209        C  0.06739247  0.61900720  0.49049128     1.04500
O210        O  0.08062997  0.63693902  0.05856081    -1.12700
O211        O  0.16105921  0.64738928  0.06404979    -0.75200
O212        O  0.14626231  0.59535087  0.04154214    -0.78600
O213        O  0.00788904  0.60436199  0.03797035    -0.79300
C214        C  0.16897818  0.61972781  0.04821673     0.95900
O215        O  0.10769378  0.58033918  0.09751418    -0.77300
O216        O  0.11389668  0.70336493  0.04374345    -0.82500
C217        C  0.03398310  0.69586246  0.09988350     0.98500
C218        C  0.08696340  0.71936817  0.03199912     1.04500
O219        O  0.01607670  0.67247912  0.08412258    -0.78100
C220        C  0.11139571  0.60306886  0.11875740     1.02800
Fe221      Fe  0.92207601  0.08668241  0.30987654     1.65800
Fe222      Fe  0.89967991  0.17179174  0.33341102     1.73200
Fe223      Fe  0.97320481  0.15963051  0.29089391     1.54400
O224        O  0.00448406  0.10978368  0.28774678    -0.81900
O225        O  0.89053693  0.20362660  0.29708904    -0.80200
O226        O  0.97509431  0.07724673  0.31858145    -0.84400
O227        O  0.92839512  0.08733886  0.26429409    -0.79200
O228        O  0.99594828  0.18050991  0.33005558    -0.81000
O229        O  0.85205483  0.14441272  0.32217067    -0.83700
C230        C  0.93546270  0.11241062  0.24581761     0.97000
C231        C  0.99551033  0.07816979  0.29670887     1.04500
O232        O  0.93131892  0.13910231  0.31157350    -1.12700
O233        O  0.90654363  0.14115608  0.37053180    -0.75200
O234        O  0.91416467  0.08356274  0.35446187    -0.78600
O235        O  0.94993650  0.14258942  0.25316025    -0.79300
C236        C  0.91110374  0.10718372  0.37499210     0.95900
O237        O  0.86814731  0.09141465  0.30156425    -0.77300
O238        O  0.94362292  0.20431486  0.34700646    -0.82500
C239        C  0.91444074  0.22020192  0.28258755     0.98500
C240        C  0.97838924  0.20353573  0.34620010     1.04500
O241        O  0.94780423  0.21055188  0.28395055    -0.78100
C242        C  0.84442291  0.11479153  0.30869857     1.02800
Fe243      Fe  0.91565770  0.43034766  0.46059089     1.65800
Fe244      Fe  0.90010096  0.34309317  0.43961537     1.73200
Fe245      Fe  0.98041921  0.36012717  0.98098367     1.54400
O246        O  0.00917997  0.41045050  0.97860831    -0.81900
O247        O  0.89606916  0.31405654  0.47711549    -0.80200
O248        O  0.96720813  0.44588758  0.45189074    -0.84400
O249        O  0.93242412  0.43349566  0.00501987    -0.79200
O250        O  0.99652348  0.34329905  0.43946447    -0.81000
O251        O  0.85012234  0.36612210  0.45038836    -0.83700
C252        C  0.94375653  0.41151985  0.02498198     0.97000
C253        C  0.99008253  0.44509885  0.47239355     1.04500
O254        O  0.92988182  0.37906487  0.45957838    -1.12700
O255        O  0.90278456  0.37154717  0.40185761    -0.75200
O256        O  0.90688119  0.43072719  0.41557614    -0.78600
O257        O  0.96006186  0.38135641  0.01920874    -0.79300
C258        C  0.90468815  0.40533814  0.39627854     0.95900
O259        O  0.86215974  0.42103497  0.46877892    -0.77300
O260        O  0.94579319  0.31379150  0.42578857    -0.82500
C261        C  0.92820789  0.29733724  0.99646560     0.98500
C262        C  0.98006561  0.31854364  0.42430584     1.04500
O263        O  0.96029465  0.30879310  0.99264189    -0.78100
C264        C  0.84021968  0.39552127  0.46298112     1.02800
Fe265      Fe  0.92509803  0.41354733  0.21117472     1.65800
Fe266      Fe  0.84015256  0.41205006  0.18853304     1.73200
Fe267      Fe  0.86910514  0.48317152  0.23157857     1.54400
O268        O  0.89388391  0.45950429  0.26748904    -0.81900
O269        O  0.82151345  0.45924472  0.16913180    -0.80200
O270        O  0.91582776  0.40351292  0.25473493    -0.84400
O271        O  0.95320721  0.45758394  0.22412770    -0.79200
O272        O  0.82025223  0.46432977  0.24917513    -0.81000
O273        O  0.87651538  0.40598261  0.15283240    -0.83700
C274        C  0.95056803  0.49165382  0.22656470     0.97000
C275        C  0.90594269  0.42759338  0.27366357     1.04500
O276        O  0.87797270  0.43785843  0.20968044    -1.12700
O277        O  0.85206986  0.36252086  0.20919907    -0.75200
O278        O  0.90877633  0.36257620  0.19818060    -0.78600
O279        O  0.92009665  0.50794556  0.22172312    -0.79300
C280        C  0.88254408  0.34667288  0.20955213     0.95900
O281        O  0.93151286  0.42568176  0.16805693    -0.77300
O282        O  0.80279700  0.41704270  0.22185630    -0.82500
C283        C  0.82186372  0.49343150  0.17455605     0.98500
C284        C  0.79911716  0.43752556  0.24434995     1.04500
O285        O  0.84043370  0.50773539  0.19581481    -0.78100
C286        C  0.90910912  0.41692926  0.14777930     1.02800
Fe287      Fe  0.59100114  0.44224319  0.06357118     1.65800
Fe288      Fe  0.67684804  0.42220197  0.08423171     1.73200
Fe289      Fe  0.66071482  0.49807472  0.04394853     1.54400
O290        O  0.63243349  0.47340963  0.50611101    -0.81900
O291        O  0.70845363  0.46646555  0.09828565    -0.80200
O292        O  0.58008711  0.44692802  0.51835490    -0.84400
O293        O  0.58061923  0.49488768  0.07453786    -0.79200
O294        O  0.71066889  0.47374556  0.03350451    -0.81000
O295        O  0.64834871  0.42620410  0.12238757    -0.83700
C296        C  0.58061277  0.51677894  0.05344819     0.97000
C297        C  0.60273506  0.45784148  0.49920060     1.04500
O298        O  0.64261403  0.45393278  0.06398872    -1.12700
O299        O  0.65175788  0.37346974  0.07197109    -0.75200
O300        O  0.59795475  0.38825592  0.05284161    -0.78600
O301        O  0.61134373  0.52893252  0.04560800    -0.79300
C302        C  0.62292556  0.36525975  0.05800304     0.95900
O303        O  0.59030143  0.43122816  0.10787040    -0.77300
O304        O  0.70602218  0.41591843  0.04707460    -0.82500
C305        C  0.70732647  0.50139482  0.09822637     0.98500
C306        C  0.72066898  0.44043394  0.03193463     1.04500
O307        O  0.68384694  0.51928987  0.08294232    -0.78100
C308        C  0.61464519  0.42836323  0.12771807     1.02800
Fe309      Fe  0.09403622  0.58648667  0.30526697     1.65800
Fe310      Fe  0.17813912  0.60616907  0.33072003     1.73200
Fe311      Fe  0.16545167  0.52987836  0.28957384     1.54400
O312        O  0.11530355  0.50065724  0.28627570    -0.81900
O313        O  0.21230401  0.60970752  0.29548518    -0.80200
O314        O  0.08259830  0.53416777  0.31475589    -0.84400
O315        O  0.09635869  0.57727805  0.26007853    -0.79200
O316        O  0.18440971  0.50870974  0.33048983    -0.81000
O317        O  0.15524026  0.65457563  0.31577707    -0.83700
C318        C  0.12069503  0.56743998  0.24176318     0.97000
C319        C  0.08397954  0.51263518  0.29329933     1.04500
O320        O  0.14566214  0.57446317  0.30871193    -1.12700
O321        O  0.14492072  0.60518614  0.36687803    -0.75200
O322        O  0.08844795  0.59663241  0.34934070    -0.78600
O323        O  0.15025384  0.55175114  0.24972887    -0.79300
C324        C  0.11084034  0.60170759  0.37023908     0.95900
O325        O  0.10142781  0.64057631  0.29629016    -0.77300
O326        O  0.20641019  0.56175961  0.34818153    -0.82500
C327        C  0.22766657  0.58424945  0.28109452     0.98500
C328        C  0.20511547  0.52689502  0.34833630     1.04500
O329        O  0.21719314  0.55141800  0.28342347    -0.78100
C330        C  0.12642482  0.66313999  0.30195877     1.02800
Fe331      Fe  0.43364057  0.58777028  0.46725443     1.65800
Fe332      Fe  0.34942903  0.60722375  0.44139998     1.73200
Fe333      Fe  0.36860591  0.53213001  0.98278868     1.54400
O334        O  0.41942281  0.50285359  0.98268328    -0.81900
O335        O  0.31478003  0.61470903  0.47602236    -0.80200
O336        O  0.44406300  0.53450933  0.45872985    -0.84400
O337        O  0.43851376  0.57933027  0.01152653    -0.79200
O338        O  0.34055979  0.51037916  0.44680464    -0.81000
O339        O  0.37321930  0.65621041  0.45463785    -0.83700
C340        C  0.41512922  0.56888177  0.03007126     0.97000
C341        C  0.44278020  0.51396281  0.48062032     1.04500
O342        O  0.38174438  0.57658201  0.46483684    -1.12700
O343        O  0.38221146  0.60221404  0.40497096    -0.75200
O344        O  0.43864025  0.59621229  0.42297729    -0.78600
O345        O  0.38586863  0.55280560  0.02246248    -0.79300
C346        C  0.41641751  0.59962697  0.40177392     0.95900
O347        O  0.42637497  0.64229177  0.47544582    -0.77300
O348        O  0.32023146  0.56231224  0.42608757    -0.82500
C349        C  0.30523335  0.58694681  0.99243796     0.98500
C350        C  0.32023328  0.52754040  0.42819307     1.04500
O351        O  0.31743022  0.55434428  0.99176096    -0.78100
C352        C  0.40150954  0.66499405  0.46914193     1.02800
C353        C  0.25732701  0.50670245  0.41901604    -0.06000
C354        C  0.29320942  0.50847228  0.40859713     0.00000
C355        C  0.29847453  0.50580203  0.37773472    -0.08600
C356        C  0.26805821  0.50595954  0.35845475    -0.06000
C357        C  0.23220473  0.50908127  0.36876461    -0.00100
C358        C  0.22682773  0.50761876  0.39969931    -0.08500
C359        C  0.18907664  0.51054844  0.41239112     0.61900
H360        H  0.25319107  0.50935926  0.44253001     0.12500
H361        H  0.27266290  0.50751150  0.33493421     0.12600
C362        C  0.33567797  0.50643741  0.36393559     0.62100
F363        F  0.18888674  0.50362524  0.44232466    -0.23100
F364        F  0.16676403  0.48524819  0.39865555    -0.20400
F365        F  0.17565903  0.54551109  0.40798068    -0.20100
F366        F  0.36334321  0.50249258  0.38446508    -0.20100
F367        F  0.33978061  0.53928164  0.34944570    -0.20500
F368        F  0.33863212  0.47798889  0.34380238    -0.23100
C369        C  0.50566166  0.53475737  0.49444525    -0.06000
C370        C  0.48379650  0.51359021  0.99575172     0.00000
C371        C  0.48635785  0.49241094  0.02186267    -0.08600
C372        C  0.51753654  0.49583374  0.04023433    -0.06000
C373        C  0.54679874  0.51949946  0.03405583    -0.00100
C374        C  0.53692342  0.53782999  0.51273026    -0.08500
C375        C  0.56550038  0.56604207  0.50523042     0.61900
H376        H  0.50393034  0.55163489  0.47502657     0.12500
H377        H  0.51940268  0.47917749  0.05976322     0.12600
C378        C  0.45689055  0.46567938  0.03049272     0.62100
F379        F  0.55439487  0.58846495  0.48237658    -0.23100
F380        F  0.59733873  0.54883275  0.49672083    -0.20400
F381        F  0.57207364  0.58814363  0.52953126    -0.20100
F382        F  0.45023643  0.44163084  0.00745469    -0.20100
F383        F  0.42535680  0.48448810  0.03746111    -0.20500
F384        F  0.46676115  0.44518237  0.05482431    -0.23100
C385        C  0.01769213  0.49137167  0.22860019    -0.06000
C386        C  0.98518511  0.50875434  0.23787352     0.00000
C387        C  0.98658249  0.52970650  0.26416071    -0.08600
C388        C  0.01900288  0.52958683  0.28133139    -0.06000
C389        C  0.05055162  0.50918186  0.27349299    -0.00100
C390        C  0.04974770  0.49005047  0.24605956    -0.13300
C391        C  0.08151744  0.46671880  0.23540992     0.61900
H392        H  0.01658299  0.47569795  0.20828368     0.12500
H393        H  0.01955145  0.54541680  0.30154165     0.12600
C394        C  0.95393263  0.55195455  0.27417121     0.62100
F395        F  0.07307067  0.44734305  0.20997334    -0.23100
F396        F  0.09111434  0.44158645  0.25675316    -0.20400
F397        F  0.11091751  0.48858160  0.22926532    -0.20100
F398        F  0.92509612  0.52916947  0.28006744    -0.20100
F399        F  0.94398612  0.57610847  0.25219867    -0.20500
F400        F  0.96139084  0.57208794  0.29942113    -0.23100
C401        C  0.80207864  0.51485979  0.12524823    -0.06000
C402        C  0.79635320  0.51530281  0.15578762     0.00000
C403        C  0.76096567  0.52422023  0.16609224    -0.08600
C404        C  0.73154682  0.52583565  0.14579197    -0.06000
C405        C  0.73676492  0.51997598  0.11552600    -0.00100
C406        C  0.77299479  0.51859813  0.10501298    -0.08500
C407        C  0.78165095  0.51763342  0.07251348     0.61900
H408        H  0.82906058  0.50866940  0.11708294     0.12500
H409        H  0.70400261  0.52767764  0.15381440     0.12600
C410        C  0.75348281  0.52699789  0.19872827     0.62100
F411        F  0.81000264  0.54124132  0.06693369    -0.23100
F412        F  0.75238361  0.52876916  0.05550331    -0.20400
F413        F  0.79167803  0.48248494  0.06433351    -0.20100
F414        F  0.77876244  0.54967499  0.21207993    -0.20100
F415        F  0.75566432  0.49257678  0.21097493    -0.20500
F416        F  0.71925621  0.54135799  0.20421004    -0.23100
C417        C  0.77450885  0.40169130  0.02551170    -0.06000
C418        C  0.75183546  0.42907544  0.01374610     0.00000
C419        C  0.75848614  0.44257689  0.98511119    -0.08600
C420        C  0.78724665  0.43610388  0.46966724    -0.06000
C421        C  0.80224003  0.40091066  0.47273700    -0.00100
C422        C  0.80463613  0.38823182  0.01024729    -0.08500
C423        C  0.82892834  0.35928430  0.02429371     0.61900
H424        H  0.76883056  0.39132312  0.04726640     0.12500
H425        H  0.80134445  0.45545061  0.45591622     0.12600
C426        C  0.73259837  0.46898700  0.96996669     0.62100
F427        F  0.81624305  0.34863414  0.05153369    -0.23100
F428        F  0.86369395  0.37277903  0.02814576    -0.20400
F429        F  0.79655312  0.31967199  0.46310746    -0.20100
F430        F  0.73266545  0.50241984  0.98441072    -0.20100
F431        F  0.70360168  0.48276816  0.47337755    -0.20500
F432        F  0.75647821  0.50139078  0.45510530    -0.23100
C433        C  0.96053436  0.40178377  0.07689962    -0.06000
C434        C  0.93787071  0.42002356  0.05663515     0.00000
C435        C  0.90924915  0.44258362  0.06746228    -0.08600
C436        C  0.90023938  0.44016184  0.09745001    -0.06000
C437        C  0.92133770  0.41946276  0.11708209    -0.00100
C438        C  0.95367265  0.40237692  0.10715229    -0.08500
C439        C  0.98069370  0.38454408  0.12810721     0.61900
H440        H  0.98398219  0.38684278  0.06880070     0.12500
H441        H  0.87682630  0.45484069  0.10597356     0.12600
C442        C  0.88875667  0.46955964  0.04819675     0.62100
F443        F  0.00869928  0.36697996  0.11331641    -0.23100
F444        F  0.96333202  0.35892938  0.14510512    -0.20400
F445        F  0.99600495  0.41103962  0.14612825    -0.20100
F446        F  0.86807046  0.45118122  0.02744659    -0.20100
F447        F  0.91315229  0.49230032  0.03436069    -0.20500
F448        F  0.86576090  0.49160415  0.06458323    -0.23100
C449        C  0.93823206  0.41182583  0.35084295    -0.06000
C450        C  0.90488672  0.41448254  0.36549478     0.00000
C451        C  0.87199444  0.41887105  0.34990388    -0.08600
C452        C  0.87356284  0.42133522  0.31935851    -0.06000
C453        C  0.90685971  0.41901942  0.30462739    -0.00100
C454        C  0.93981301  0.41417876  0.32016677    -0.08500
C455        C  0.97609768  0.41227126  0.30444947     0.61900
H456        H  0.96280362  0.40720109  0.36361473     0.12500
H457        H  0.84883138  0.42529033  0.30664419     0.12600
C458        C  0.83568404  0.42043876  0.36561541     0.62100
F459        F  0.98141830  0.44411049  0.28883117    -0.23100
F460        F  0.97646442  0.38276317  0.28520415    -0.20400
F461        F  0.00486479  0.40813073  0.32397537    -0.20100
F462        F  0.83569440  0.44907607  0.38570735    -0.20100
F463        F  0.83001293  0.38799914  0.38034186    -0.20500
F464        F  0.80696744  0.42566960  0.34621098    -0.23100
C465        C  0.00414582  0.22668839  0.39374037    -0.06000
C466        C  0.99720379  0.23273940  0.36375415     0.00000
C467        C  0.99734563  0.26944311  0.35361927    -0.08600
C468        C  0.99733024  0.29852536  0.37430602    -0.06000
C469        C  0.99951244  0.29219118  0.40469406    -0.00100
C470        C  0.00619510  0.25585081  0.41429110    -0.08500
C471        C  0.01096063  0.24655861  0.44651679     0.61900
H472        H  0.00545382  0.19884943  0.40163310     0.12500
H473        H  0.99193886  0.32618145  0.36679912     0.12600
C474        C  0.99236157  0.27863076  0.32143601     0.62100
F475        F  0.03796280  0.22030069  0.44970391    -0.23100
F476        F  0.97872292  0.23296767  0.45731903    -0.20400
F477        F  0.02105207  0.27679982  0.46304064    -0.20100
F478        F  0.95580631  0.28379063  0.31544080    -0.20100
F479        F  0.00603191  0.25106719  0.30356480    -0.20500
F480        F  0.01078533  0.31041022  0.31482783    -0.23100
C481        C  0.86684151  0.30486424  0.25020565    -0.06000
C482        C  0.88859633  0.31159052  0.22554016     0.00000
C483        C  0.91792501  0.28721368  0.21921437    -0.08600
C484        C  0.92439247  0.25737631  0.23799920    -0.06000
C485        C  0.90359493  0.25146296  0.26332079    -0.00100
C486        C  0.87415191  0.27574266  0.26962713    -0.08500
C487        C  0.85152483  0.27248347  0.29738380     0.61900
H488        H  0.84490704  0.32383967  0.25501694     0.12500
H489        H  0.94661427  0.23868478  0.23333980     0.12600
C490        C  0.94308471  0.29270444  0.19321463     0.62100
F491        F  0.82816369  0.30203375  0.30108332    -0.23100
F492        F  0.87412397  0.27111670  0.32183427    -0.20400
F493        F  0.83063250  0.24119078  0.29593131    -0.20100
F494        F  0.96527145  0.32245931  0.19856299    -0.20100
F495        F  0.92283053  0.29825118  0.16783021    -0.20500
F496        F  0.96552512  0.26274384  0.18845856    -0.23100
C497        C  0.24178260  0.62394067  0.49416131    -0.06000
C498        C  0.27161178  0.59577539  0.00867898     0.00000
C499        C  0.26455703  0.58416839  0.03784043    -0.08600
C500        C  0.23143621  0.59459232  0.05102701    -0.06000
C501        C  0.20559262  0.61557608  0.03576401    -0.00100
C502        C  0.20865525  0.63367615  0.50713000    -0.08500
C503        C  0.18061165  0.65502853  0.48970146     0.61900
H504        H  0.24722676  0.63196108  0.47171327     0.12500
H505        H  0.22483639  0.58530394  0.07292457     0.12600
C506        C  0.29184807  0.56152172  0.05508679     0.62100
F507        F  0.19342750  0.66556313  0.46247990    -0.23100
F508        F  0.17095071  0.68618953  0.50523051    -0.20400
F509        F  0.15036099  0.63347671  0.48523562    -0.20100
F510        F  0.32511386  0.57883621  0.05514849    -0.20100
F511        F  0.29528749  0.52716864  0.04239461    -0.20500
F512        F  0.28138048  0.55708800  0.08406163    -0.23100
C513        C  0.01358137  0.47204310  0.01782694    -0.06000
C514        C  0.00325167  0.47599960  0.98810768     0.00000
C515        C  0.99406370  0.51586427  0.47795899    -0.08600
C516        C  0.99769207  0.54676153  0.49693721    -0.06000
C517        C  0.00935100  0.53834697  0.02758859    -0.00100
C518        C  0.01627043  0.50200657  0.03773117    -0.08500
C519        C  0.02714248  0.49411363  0.06940240     0.61900
H520        H  0.01930133  0.44471849  0.02573407     0.12500
H521        H  0.99552773  0.57400225  0.48786401     0.12600
C522        C  0.98610925  0.52211780  0.44549156     0.62100
F523        F  0.02260310  0.45758486  0.07627559    -0.23100
F524        F  0.00592012  0.51442407  0.08862603    -0.20400
F525        F  0.06340923  0.50255517  0.07364489    -0.20100
F526        F  0.99131090  0.55824566  0.43763048    -0.20100
F527        F  0.95037327  0.51329800  0.43921925    -0.20500
F528        F  0.00889091  0.50064033  0.42842880    -0.23100
C529        C  0.07604526  0.58010486  0.44599372    -0.06000
C530        C  0.07521194  0.61544908  0.45856961     0.00000
C531        C  0.08410666  0.64614049  0.44078538    -0.08600
C532        C  0.09548714  0.63997348  0.41192737    -0.06000
C533        C  0.09659765  0.60497858  0.39988990    -0.00100
C534        C  0.08577273  0.57445632  0.41641730    -0.08500
C535        C  0.08274575  0.53665655  0.40252365     0.61900
H536        H  0.06826585  0.55698694  0.45930142     0.12500
H537        H  0.10351098  0.66262064  0.39817225     0.12600
C538        C  0.08236350  0.68534945  0.45172870     0.62100
F539        F  0.08108264  0.50967566  0.42368738    -0.23100
F540        F  0.11219595  0.52898940  0.38480525    -0.20400
F541        F  0.05162649  0.53530624  0.38533033    -0.20100
F542        F  0.10325968  0.68894670  0.47680383    -0.20100
F543        F  0.04666086  0.69453273  0.45742035    -0.20500
F544        F  0.09526955  0.71003514  0.43136314    -0.23100
C545        C  0.08622073  0.60469209  0.16817066    -0.06000
C546        C  0.11217632  0.58981697  0.14908845     0.00000
C547        C  0.13910553  0.56572695  0.15977177    -0.08600
C548        C  0.13983292  0.55820170  0.18999826    -0.06000
C549        C  0.11481642  0.57429762  0.20977578    -0.00100
C550        C  0.08654377  0.59727107  0.19839775    -0.08500
C551        C  0.05688994  0.61458347  0.21731243     0.61900
H552        H  0.06578862  0.62290221  0.15897728     0.12500
H553        H  0.16066563  0.53997544  0.19839338     0.12600
C554        C  0.16783688  0.54950166  0.13959158     0.62100
F555        F  0.03252692  0.63513217  0.20085391    -0.23100
F556        F  0.07216026  0.63773371  0.23812033    -0.20400
F557        F  0.03717823  0.58754257  0.23096962    -0.20100
F558        F  0.18656899  0.57734510  0.12601949    -0.20100
F559        F  0.15147403  0.52770555  0.11838860    -0.20500
F560        F  0.19275960  0.52814118  0.15479924    -0.23100
C561        C  0.01989945  0.00656908  0.23569885    -0.06000
C562        C  0.00105880  0.97495076  0.24506278     0.00000
C563        C  0.98131170  0.97794345  0.27181405    -0.08600
C564        C  0.98261794  0.01115013  0.28834422    -0.06000
C565        C  0.00115023  0.04290159  0.27888766    -0.00100
C566        C  0.01987650  0.04034207  0.25156405    -0.08500
C567        C  0.03964435  0.07285868  0.23868824     0.61900
H568        H  0.03481383  0.00484402  0.21530369     0.12500
H569        H  0.96783624  0.01269152  0.30881187     0.12600
C570        C  0.95747333  0.94707866  0.28256416     0.62100
F571        F  0.05831049  0.06361907  0.21329577    -0.23100
F572        F  0.06460564  0.08624283  0.25889697    -0.20400
F573        F  0.01494211  0.10006079  0.23148551    -0.20100
F574        F  0.97880412  0.91801652  0.29170302    -0.20100
F575        F  0.93447716  0.93574364  0.26010459    -0.20500
F576        F  0.93600267  0.95789104  0.30603975    -0.23100
C577        C  0.01780577  0.71616379  0.15094965    -0.06000
C578        C  0.01592320  0.72283973  0.12052395     0.00000
C579        C  0.00849702  0.75944286  0.11154688    -0.08600
C580        C  0.00878849  0.78831175  0.13259932    -0.06000
C581        C  0.01335396  0.78188347  0.16281857    -0.00100
C582        C  0.01500386  0.74477688  0.17215759    -0.08500
C583        C  0.01705931  0.73457841  0.20436335     0.61900
H584        H  0.02369098  0.68857261  0.15825423     0.12500
H585        H  0.00785021  0.81639990  0.12507426     0.12600
C586        C  0.00377934  0.76980283  0.07962030     0.62100
F587        F  0.05263474  0.72626390  0.21189692    -0.23100
F588        F  0.00446693  0.76254531  0.22232411    -0.20400
F589        F  0.99561545  0.70430977  0.20938105    -0.20100
F590        F  0.99497577  0.73995459  0.06221526    -0.20100
F591        F  0.03559383  0.78525839  0.06963964    -0.20500
F592        F  0.97576945  0.79506034  0.07689650    -0.23100
C593        C  0.09221830  0.72108490  0.30261715    -0.06000
C594        C  0.12134398  0.70068179  0.29132532     0.00000
C595        C  0.14196708  0.71453319  0.26783349    -0.08600
C596        C  0.13053219  0.74728673  0.25461548    -0.06000
C597        C  0.09999737  0.76702461  0.26478026    -0.00100
C598        C  0.08188272  0.75484145  0.29039805    -0.08500
C599        C  0.05336584  0.77795647  0.30587501     0.61900
H600        H  0.07734296  0.71006425  0.32102118     0.12500
H601        H  0.14502952  0.75724167  0.23565170     0.12600
C602        C  0.17532073  0.69436551  0.25640393     0.62100
F603        F  0.04463752  0.76390443  0.33314827    -0.23100
F604        F  0.02184862  0.77957955  0.28920404    -0.20400
F605        F  0.06682175  0.81277907  0.31030106    -0.20100
F606        F  0.16593701  0.65954652  0.24705403    -0.20100
F607        F  0.20101627  0.69188166  0.27866249    -0.20500
F608        F  0.19105182  0.71228106  0.23299052    -0.23100
C609        C  0.72371094  0.44131333  0.30311947    -0.06000
C610        C  0.70805944  0.40660811  0.29920860     0.00000
C611        C  0.72531153  0.38094868  0.28046476    -0.08600
C612        C  0.75526314  0.39230678  0.26378704    -0.06000
C613        C  0.76934847  0.42815205  0.26560149    -0.00100
C614        C  0.75477707  0.45235975  0.28739359    -0.08500
C615        C  0.77084036  0.48977972  0.29406380     0.61900
H616        H  0.71040384  0.46029422  0.31805155     0.12500
H617        H  0.76766589  0.37294509  0.24869918     0.12600
C618        C  0.71144294  0.34208876  0.27729536     0.62100
F619        F  0.75275951  0.50753464  0.31676802    -0.23100
F620        F  0.76849031  0.51165681  0.26946392    -0.20400
F621        F  0.80681956  0.48608300  0.30261526    -0.20100
F622        F  0.67587980  0.34247930  0.26723016    -0.20100
F623        F  0.71318878  0.32506947  0.30435719    -0.20500
F624        F  0.73193858  0.32156693  0.25766295    -0.23100
C625        C  0.57340200  0.40417244  0.16460788    -0.06000
C626        C  0.60306945  0.42647288  0.15834882     0.00000
C627        C  0.62096962  0.44591131  0.18116862    -0.08600
C628        C  0.61012799  0.43994904  0.21010643    -0.06000
C629        C  0.58202145  0.41562105  0.21674397    -0.00100
C630        C  0.56218008  0.39836163  0.19354368    -0.08500
C631        C  0.52960384  0.37372656  0.19859567     0.61900
H632        H  0.55988989  0.39010983  0.14657074     0.12500
H633        H  0.62471684  0.45335304  0.22789531     0.12600
C634        C  0.65112132  0.47304126  0.17523478     0.62100
F635        F  0.51053203  0.36695553  0.17275294    -0.23100
F636        F  0.50566343  0.38993889  0.21814699    -0.20400
F637        F  0.54126352  0.34047633  0.20954488    -0.20100
F638        F  0.64059208  0.49647863  0.15291897    -0.20100
F639        F  0.68249441  0.45454177  0.16722431    -0.20500
F640        F  0.65901844  0.49413926  0.19987045    -0.23100
C641        C  0.57757798  0.41308977  0.42609601    -0.06000
C642        C  0.60243461  0.43048107  0.40769409     0.00000
C643        C  0.62261626  0.46063561  0.41830328    -0.08600
C644        C  0.61842680  0.47099996  0.44780410    -0.06000
C645        C  0.59632601  0.45128500  0.46727735    -0.00100
C646        C  0.57379044  0.42299617  0.45582546    -0.08500
C647        C  0.54678020  0.40223998  0.47444460     0.61900
H648        H  0.56155665  0.39089697  0.41695680     0.12500
H649        H  0.63397602  0.49388663  0.45623508     0.12600
C650        C  0.65001529  0.48047933  0.39931446     0.62100
F651        F  0.52592246  0.37835808  0.45772698    -0.23100
F652        F  0.52321750  0.42654334  0.48811152    -0.20400
F653        F  0.56520332  0.38182210  0.49523663    -0.20100
F654        F  0.63217602  0.49917938  0.37711827    -0.20100
F655        F  0.67412414  0.45550323  0.38710488    -0.20500
F656        F  0.67006025  0.50569111  0.41541749    -0.23100
C657        C  0.50215880  0.22933733  0.37825024    -0.06000
C658        C  0.50137406  0.23559553  0.40881451     0.00000
C659        C  0.50053037  0.27275607  0.41856869    -0.08600
C660        C  0.50701071  0.30139098  0.39840404    -0.06000
C661        C  0.51119612  0.29467309  0.36813887    -0.00100
C662        C  0.50547245  0.25825283  0.35776973    -0.08500
C663        C  0.50723728  0.24826104  0.32542918     0.61900
H664        H  0.50338963  0.20130524  0.37035107     0.12500
H665        H  0.51080389  0.32901479  0.40668175     0.12600
C666        C  0.49567281  0.28307668  0.45054477     0.62100
F667        F  0.54213293  0.23715658  0.31851804    -0.23100
F668        F  0.49725899  0.27745905  0.30790819    -0.20400
F669        F  0.48360946  0.21985778  0.31918330    -0.20100
F670        F  0.48250133  0.25408957  0.46652471    -0.20100
F671        F  0.47081324  0.31155164  0.45284403    -0.20500
F672        F  0.52857345  0.29423897  0.46235774    -0.23100
C673        C  0.62040182  0.27370578  0.50645650    -0.06000
C674        C  0.59877395  0.26175640  0.01719219     0.00000
C675        C  0.57837421  0.27437304  0.04182683    -0.08600
C676        C  0.58832494  0.30761119  0.05553694    -0.06000
C677        C  0.61819667  0.32789022  0.04606244    -0.00100
C678        C  0.63968259  0.31453309  0.02255696    -0.08500
C679        C  0.66711670  0.32335327  0.51340646     0.61900
H680        H  0.63806036  0.26210889  0.48981475     0.12500
H681        H  0.57209887  0.31871685  0.07335197     0.12600
C682        C  0.54608601  0.25359267  0.05375283     0.62100
F683        F  0.68527788  0.30425288  0.49146840    -0.23100
F684        F  0.68950825  0.32432919  0.53794876    -0.20400
F685        F  0.66082077  0.35853965  0.50348633    -0.20100
F686        F  0.53572034  0.26675085  0.08113450    -0.20100
F687        F  0.55470189  0.21694438  0.05687972    -0.20500
F688        F  0.51680242  0.25724964  0.03478399    -0.23100
C689        C  0.30741297  0.58057350  0.22695043    -0.06000
C690        C  0.32220630  0.61545083  0.23133579     0.00000
C691        C  0.30399181  0.64107358  0.24950594    -0.08600
C692        C  0.27315053  0.62958314  0.26484968    -0.06000
C693        C  0.25934112  0.59375341  0.26216799    -0.00100
C694        C  0.27579020  0.56928284  0.24148713    -0.08500
C695        C  0.26076186  0.53153285  0.23437668     0.61900
H696        H  0.32175203  0.56169608  0.21255895     0.12500
H697        H  0.26018296  0.64865412  0.27981961     0.12600
C698        C  0.31782223  0.67986349  0.25374548     0.62100
F699        F  0.27889774  0.51494250  0.21114453    -0.23100
F700        F  0.22453203  0.53441881  0.22636852    -0.20400
F701        F  0.26441388  0.50902902  0.25856379    -0.20100
F702        F  0.31757421  0.69771767  0.22700638    -0.20100
F703        F  0.35282488  0.67903340  0.26501590    -0.20500
F704        F  0.29640966  0.69997539  0.27301400    -0.23100
C705        C  0.52569883  0.54807038  0.27347872    -0.06000
C706        C  0.51820466  0.54464653  0.24315409     0.00000
C707        C  0.51211485  0.50868287  0.23176770    -0.08600
C708        C  0.51106866  0.47850797  0.25127739    -0.06000
C709        C  0.51763848  0.48189685  0.28178386    -0.00100
C710        C  0.52573460  0.51775125  0.29292052    -0.08500
C711        C  0.53355436  0.52480058  0.32537738     0.61900
H712        H  0.53053315  0.57527174  0.28219421     0.12500
H713        H  0.50573993  0.45151339  0.24245536     0.12600
C714        C  0.50757856  0.50159268  0.19893654     0.62100
F715        F  0.53377932  0.56181753  0.33215189    -0.23100
F716        F  0.56736263  0.51069531  0.33274609    -0.20400
F717        F  0.50710427  0.50871668  0.34240132    -0.20100
F718        F  0.53300161  0.52132202  0.18341420    -0.20100
F719        F  0.47293737  0.51152544  0.18994336    -0.20500
F720        F  0.51263528  0.46502402  0.19192627    -0.23100
C721        C  0.42154167  0.57212109  0.35264984    -0.06000
C722        C  0.43102322  0.60044258  0.37196053     0.00000
C723        C  0.45310859  0.62926675  0.36240632    -0.08600
C724        C  0.46357499  0.62962663  0.33287918    -0.06000
C725        C  0.45055179  0.60370936  0.31230335    -0.00100
C726        C  0.43044618  0.57310774  0.32265740    -0.08500
C727        C  0.41706238  0.54213574  0.30278991     0.61900
H728        H  0.40605643  0.54965199  0.36131044     0.12500
H729        H  0.48113629  0.65123598  0.32554462     0.12600
C730        C  0.46388619  0.66047982  0.38291950     0.62100
F731        F  0.40145744  0.51418549  0.31862384    -0.23100
F732        F  0.44567152  0.52684851  0.28738184    -0.20400
F733        F  0.39109573  0.55528635  0.28334375    -0.20100
F734        F  0.48526519  0.64729211  0.40567049    -0.20100
F735        F  0.43298049  0.67680576  0.39442503    -0.20500
F736        F  0.48342041  0.68711910  0.36851816    -0.23100
C737        C  0.39824565  0.55842432  0.08177352    -0.06000
C738        C  0.42120254  0.57636642  0.06186287     0.00000
C739        C  0.44649023  0.60268345  0.07284260    -0.08600
C740        C  0.44489126  0.61236736  0.10264644    -0.06000
C741        C  0.42027734  0.59612475  0.12171611    -0.00100
C742        C  0.39714207  0.56799317  0.11163788    -0.08500
C743        C  0.37056757  0.54910820  0.13194438     0.61900
H744        H  0.38037971  0.53712994  0.07368196     0.12500
H745        H  0.46294682  0.63308210  0.11152754     0.12600
C746        C  0.47504706  0.62102366  0.05400134     0.62100
F747        F  0.34724381  0.52614312  0.11662064    -0.23100
F748        F  0.34963923  0.57493456  0.14662363    -0.20400
F749        F  0.38950199  0.52820439  0.15221629    -0.20100
F750        F  0.45848228  0.64234296  0.03278775    -0.20100
F751        F  0.49682794  0.59472162  0.04092048    -0.20500
F752        F  0.49762381  0.64359984  0.07040181    -0.23100
C753        C  0.48956698  0.04906269  0.02082000    -0.06000
C754        C  0.51060387  0.04866751  0.99510928     0.00000
C755        C  0.52215280  0.01230128  0.49144357    -0.08600
C756        C  0.52170188  0.98326384  0.51203053    -0.06000
C757        C  0.50578261  0.98492563  0.03322142    -0.00100
C758        C  0.48550795  0.01802911  0.03929021    -0.08500
C759        C  0.45746605  0.02103236  0.06381731     0.61900
H760        H  0.47527862  0.07422233  0.02604584     0.12500
H761        H  0.53758158  0.95883769  0.50779452     0.12600
C762        C  0.54435719  0.00634580  0.46362732     0.62100
F763        F  0.44259646  0.05584770  0.06608586    -0.23100
F764        F  0.47285009  0.01298036  0.09081728    -0.20400
F765        F  0.42918163  0.99737695  0.05796162    -0.20100
F766        F  0.57391018  0.02933337  0.46378930    -0.20100
F767        F  0.52294135  0.01251105  0.43900161    -0.20500
F768        F  0.55789677  0.97102744  0.46134438    -0.23100
C769        C  0.51218455  0.79996090  0.14890289    -0.06000
C770        C  0.51117453  0.79329507  0.11835689     0.00000
C771        C  0.51477155  0.75628179  0.10867898    -0.08600
C772        C  0.51349597  0.72741395  0.12946353    -0.06000
C773        C  0.51112880  0.73410742  0.15993846    -0.00100
C774        C  0.51351395  0.77113730  0.16970868    -0.08500
C775        C  0.51312671  0.78136175  0.20205879     0.61900
H776        H  0.50902727  0.82790990  0.15671688     0.12500
H777        H  0.51100125  0.69942238  0.12167483     0.12600
C778        C  0.51382999  0.74661117  0.07624556     0.62100
F779        F  0.53678970  0.81000617  0.20729385    -0.23100
F780        F  0.52417935  0.75254064  0.21957840    -0.20400
F781        F  0.47839409  0.79209839  0.20996605    -0.20100
F782        F  0.53190069  0.77265625  0.06003819    -0.20100
F783        F  0.47811088  0.74459667  0.06683448    -0.20500
F784        F  0.53059974  0.71318319  0.07108831    -0.23100
C785        C  0.39887212  0.74420766  0.02643593    -0.06000
C786        C  0.42550638  0.76772664  0.01521140     0.00000
C787        C  0.44805973  0.75333779  0.48983679    -0.08600
C788        C  0.43877454  0.72041847  0.47537114    -0.06000
C789        C  0.40576309  0.70270533  0.48053455    -0.00100
C790        C  0.38951504  0.71140746  0.01210132    -0.08500
C791        C  0.36208534  0.68581152  0.02583318     0.61900
H792        H  0.38614670  0.75115180  0.04718422     0.12500
H793        H  0.45773793  0.70760581  0.46025685     0.12600
C794        C  0.48316087  0.77212256  0.48158856     0.62100
F795        F  0.34889294  0.69938809  0.05225134    -0.23100
F796        F  0.37813478  0.65215695  0.03121991    -0.20400
F797        F  0.33294853  0.68115771  0.00682911    -0.20100
F798        F  0.50772639  0.77029997  0.50466953    -0.20100
F799        F  0.47597831  0.80826595  0.47481366    -0.20500
F800        F  0.49923847  0.75594750  0.45721761    -0.23100
C801        C  0.39235986  0.77583463  0.25369943    -0.06000
C802        C  0.42347731  0.75616564  0.26287611     0.00000
C803        C  0.44242588  0.76802745  0.28861909    -0.08600
C804        C  0.43077773  0.80027410  0.30290377    -0.06000
C805        C  0.40044412  0.82015345  0.29305673    -0.00100
C806        C  0.38039619  0.80759789  0.26838255    -0.08500
C807        C  0.34748478  0.82852067  0.25680259     0.61900
H808        H  0.37771125  0.76661035  0.23430316     0.12500
H809        H  0.44575699  0.81077588  0.32174067     0.12600
C810        C  0.47388151  0.74654667  0.30180374     0.62100
F811        F  0.33274056  0.81216566  0.23189327    -0.23100
F812        F  0.35735138  0.86380242  0.24959453    -0.20400
F813        F  0.32079665  0.82977693  0.27809041    -0.20100
F814        F  0.50367294  0.74776950  0.28346014    -0.20100
F815        F  0.46340580  0.71073989  0.30567505    -0.20500
F816        F  0.48438367  0.76030477  0.32903826    -0.23100
C817        C  0.39457556  0.96547698  0.19666829    -0.06000
C818        C  0.41458220  0.94496405  0.21736869     0.00000
C819        C  0.43909632  0.91739547  0.20713638    -0.08600
C820        C  0.43892219  0.90868186  0.17699017    -0.06000
C821        C  0.41686320  0.92751794  0.15682556    -0.00100
C822        C  0.39557378  0.95763407  0.16645463    -0.08500
C823        C  0.37301275  0.98071075  0.14533710     0.61900
H824        H  0.37754657  0.98779107  0.20440574     0.12500
H825        H  0.45608106  0.88669755  0.16875200     0.12600
C826        C  0.46508598  0.89668086  0.22729526     0.62100
F827        F  0.35218934  0.00670864  0.15996589    -0.23100
F828        F  0.34970244  0.95853654  0.12930741    -0.20400
F829        F  0.39568972  0.99908211  0.12638993    -0.20100
F830        F  0.48721946  0.87263216  0.21184931    -0.20100
F831        F  0.44567719  0.87647137  0.24730866    -0.20500
F832        F  0.48758454  0.92107939  0.24194124    -0.23100
C833        C  0.44983636  0.90685049  0.41489430    -0.06000
C834        C  0.41337301  0.91561798  0.40864977     0.00000
C835        C  0.38958007  0.92516871  0.43210720    -0.08600
C836        C  0.40385564  0.92681137  0.46070501    -0.06000
C837        C  0.44009538  0.91752189  0.46679470    -0.00100
C838        C  0.46383495  0.90781068  0.44354876    -0.08500
C839        C  0.50381981  0.89813622  0.44736140     0.61900
H840        H  0.46786124  0.89909432  0.39706615     0.12500
H841        H  0.38600876  0.93299823  0.47899904     0.12600
C842        C  0.34920017  0.93255872  0.42767593     0.62100
F843        F  0.52410401  0.91679650  0.42684499    -0.23100
F844        F  0.50862440  0.86102146  0.44262887    -0.20400
F845        F  0.51733183  0.90712073  0.47485856    -0.20100
F846        F  0.33216917  0.90084270  0.41838569    -0.20100
F847        F  0.34424488  0.95944328  0.40691048    -0.20500
F848        F  0.33241308  0.94424754  0.45333124    -0.23100
C849        C  0.21806343  0.93572065  0.22332883    -0.06000
C850        C  0.19445227  0.91088099  0.23659938     0.00000
C851        C  0.20406534  0.89466859  0.26369639    -0.08600
C852        C  0.23686172  0.90463134  0.27719177    -0.06000
C853        C  0.26051394  0.92990529  0.26442439    -0.00100
C854        C  0.25160046  0.94511144  0.23657486    -0.08500
C855        C  0.27771218  0.96973029  0.22036854     0.61900
H856        H  0.20988871  0.94778329  0.20258570     0.12500
H857        H  0.24411965  0.89293152  0.29828211     0.12600
C858        C  0.17951010  0.86714555  0.27844497     0.62100
F859        F  0.28216604  0.00225198  0.23565503    -0.23100
F860        F  0.26517586  0.97804000  0.19237185    -0.20400
F861        F  0.31099949  0.95226069  0.21756712    -0.20100
F862        F  0.14586146  0.88282630  0.28389421    -0.20100
F863        F  0.19375785  0.85506098  0.30495807    -0.20500
F864        F  0.17535695  0.83704763  0.26020080    -0.23100
C865        C  0.07808818  0.80422909  0.98331785    -0.06000
C866        C  0.11248866  0.81946317  0.47990633     0.00000
C867        C  0.13953889  0.79665169  0.49216067    -0.08600
C868        C  0.12829674  0.76563258  0.50768742    -0.06000
C869        C  0.09416913  0.75099663  0.01227369    -0.00100
C870        C  0.06724240  0.77156473  0.99657330    -0.08500
C871        C  0.02688192  0.76261749  0.99296966     0.61900
H872        H  0.05742522  0.82147199  0.97322424     0.12500
H873        H  0.14888119  0.74967057  0.51887512     0.12600
C874        C  0.17980007  0.80536914  0.48981964     0.62100
F875        F  0.00686806  0.78422602  0.01205902    -0.23100
F876        F  0.01821230  0.72649591  0.99726748    -0.20400
F877        F  0.01577876  0.77056802  0.96451211    -0.20100
F878        F  0.18724016  0.83841664  0.50339741    -0.20100
F879        F  0.18941956  0.80723440  0.46050096    -0.20500
F880        F  0.20142612  0.77885818  0.50293284    -0.23100
C881        C  0.25524501  0.02444159  0.41605978    -0.06000
C882        C  0.22026516  0.01436908  0.40592155     0.00000
C883        C  0.21625517  0.00834708  0.37522139    -0.08600
C884        C  0.24718828  0.00557607  0.35702934    -0.06000
C885        C  0.28270812  0.01134705  0.36761767    -0.00100
C886        C  0.28633433  0.02408622  0.39729163    -0.08500
C887        C  0.32185185  0.03779981  0.41018602     0.61900
H888        H  0.25894631  0.03004200  0.43935247     0.12500
H889        H  0.24360741  0.99658791  0.33437259     0.12600
C890        C  0.17966679  0.00177652  0.36125125     0.62100
F891        F  0.31833620  0.07475719  0.41637589    -0.23100
F892        F  0.35074824  0.03309259  0.39120234    -0.20400
F893        F  0.32965515  0.01980894  0.43617314    -0.20100
F894        F  0.15196093  0.01467462  0.37906527    -0.20100
F895        F  0.17538917  0.96470573  0.35607332    -0.20500
F896        F  0.17754393  0.02017036  0.33477008    -0.23100
C897        C  0.26535012  0.89155779  0.50664016    -0.06000
C898        C  0.25306812  0.92582313  0.01534978     0.00000
C899        C  0.27005031  0.95136722  0.03481332    -0.08600
C900        C  0.30164211  0.94037088  0.05001656    -0.06000
C901        C  0.31698937  0.90542304  0.04639058    -0.00100
C902        C  0.29940940  0.87933462  0.02829071    -0.08500
C903        C  0.31263766  0.84221229  0.51597791     0.61900
H904        H  0.25264981  0.87273536  0.49129659     0.12500
H905        H  0.31589041  0.95973142  0.06403924     0.12600
C906        C  0.25618073  0.99032322  0.03934420     0.62100
F907        F  0.29208428  0.82255660  0.49577135    -0.23100
F908        F  0.31409320  0.82239434  0.54177193    -0.20400
F909        F  0.34966290  0.84385170  0.01150315    -0.20100
F910        F  0.22039472  0.99000873  0.04846360    -0.20100
F911        F  0.25893757  0.00954965  0.01335685    -0.20500
F912        F  0.27603175  0.00898097  0.06061508    -0.23100
C913        C  0.12764318  0.90836456  0.10702990    -0.06000
C914        C  0.09728690  0.92075754  0.12256771     0.00000
C915        C  0.06874586  0.93932935  0.10764955    -0.08600
C916        C  0.07357605  0.94818212  0.07778236    -0.06000
C917        C  0.10513984  0.93733147  0.06276881    -0.00100
C918        C  0.13146194  0.91522723  0.07707580    -0.08500
C919        C  0.16301363  0.89790368  0.06072434     0.61900
H920        H  0.14846591  0.89288675  0.11860563     0.12500
H921        H  0.05288291  0.96351820  0.06597705     0.12600
C922        C  0.03291883  0.94778056  0.12271468     0.62100
F923        F  0.17850645  0.86931431  0.07634595    -0.23100
F924        F  0.18929770  0.92389542  0.05622430    -0.20400
F925        F  0.15120751  0.88403644  0.03396722    -0.20100
F926        F  0.03820631  0.97314355  0.14502714    -0.20100
F927        F  0.01896301  0.91601274  0.13447046    -0.20500
F928        F  0.00737532  0.96182404  0.10323330    -0.23100
C929        C  0.05078048  0.89108307  0.33443966    -0.06000
C930        C  0.06431652  0.91755258  0.31482847     0.00000
C931        C  0.08282657  0.94838439  0.32669443    -0.08600
C932        C  0.09131738  0.94864006  0.35684827    -0.06000
C933        C  0.08239497  0.91948166  0.37509908    -0.00100
C934        C  0.06021114  0.89103735  0.36440224    -0.08500
C935        C  0.04804175  0.86000138  0.38405403     0.61900
H936        H  0.03381146  0.86939117  0.32601743     0.12500
H937        H  0.10582478  0.97098595  0.36636992     0.12600
C938        C  0.09428611  0.98080978  0.30832922     0.62100
F939        F  0.02742486  0.83448647  0.36878045    -0.23100
F940        F  0.02704643  0.87374060  0.40677833    -0.20400
F941        F  0.07813714  0.84220650  0.39566015    -0.20100
F942        F  0.06482520  0.99410558  0.29278549    -0.20100
F943        F  0.12157840  0.97038669  0.28915414    -0.20500
F944        F  0.10704872  0.00936980  0.32555652    -0.23100
C945        C  0.62493904  0.20392006  0.26446452    -0.06000
C946        C  0.60868914  0.20044091  0.23670323     0.00000
C947        C  0.58812642  0.22963828  0.22493753    -0.08600
C948        C  0.58382627  0.26149787  0.24212241    -0.06000
C949        C  0.59987041  0.26514402  0.27016379    -0.00100
C950        C  0.62132928  0.23588756  0.28150216    -0.08500
C951        C  0.63976606  0.23779323  0.31152014     0.61900
H952        H  0.64038805  0.18062321  0.27299533     0.12500
H953        H  0.56726874  0.28426759  0.23364989     0.12600
C954        C  0.57086641  0.22661045  0.19462028     0.62100
F955        F  0.65478835  0.20442246  0.31952809    -0.23100
F956        F  0.61494632  0.24781569  0.33289555    -0.20400
F957        F  0.66748632  0.26310028  0.31086423    -0.20100
F958        F  0.54405544  0.20025865  0.19484738    -0.20100
F959        F  0.59695886  0.21676559  0.17417487    -0.20500
F960        F  0.55534576  0.25943040  0.18585967    -0.23100
C961        C  0.46965204  0.01922353  0.25405527    -0.06000
C962        C  0.47372055  0.00993649  0.28396055     0.00000
C963        C  0.50936515  0.99917715  0.29361831    -0.08600
C964        C  0.53892061  0.99953278  0.27350674    -0.06000
C965        C  0.53481293  0.00897598  0.24364632    -0.00100
C966        C  0.49886138  0.01792740  0.23369275    -0.08500
C967        C  0.49055694  0.02531484  0.20146900     0.61900
H968        H  0.44270820  0.02653659  0.24629336     0.12500
H969        H  0.56595728  0.99250804  0.28121069     0.12600
C970        C  0.51677646  0.98639175  0.32487384     0.62100
F971        F  0.45356979  0.02510778  0.19560981    -0.23100
F972        F  0.50647300  0.99853832  0.18400497    -0.20400
F973        F  0.50355271  0.05932870  0.19389124    -0.20100
F974        F  0.50207125  0.95202584  0.32865438    -0.20100
F975        F  0.50168197  0.01049927  0.34498135    -0.20500
F976        F  0.55365158  0.98407814  0.33100347    -0.23100
C977        C  0.56662630  0.07947694  0.32222321    -0.06000
C978        C  0.60165992  0.07932615  0.31001018     0.00000
C979        C  0.63193839  0.09046508  0.32761304    -0.08600
C980        C  0.62607549  0.09970967  0.35705658    -0.06000
C981        C  0.59140015  0.09938186  0.36905887    -0.00100
C982        C  0.56094446  0.08978055  0.35170571    -0.08500
C983        C  0.52285789  0.09158801  0.36423743     0.61900
H984        H  0.54373263  0.07170154  0.30847491     0.12500
H985        H  0.64862730  0.10787030  0.37108120     0.12600
C986        C  0.67000733  0.09490507  0.31541914     0.62100
F987        F  0.51601002  0.12637320  0.37514772    -0.23100
F988        F  0.51976512  0.06664688  0.38681444    -0.20400
F989        F  0.49667215  0.08382474  0.34310645    -0.20100
F990        F  0.66832581  0.11617260  0.29045905    -0.20100
F991        F  0.68490795  0.06099089  0.30892004    -0.20500
F992        F  0.69316852  0.11216007  0.33520379    -0.23100
C993        C  0.61339090  0.13253491  0.10320722    -0.06000
C994        C  0.59441053  0.10617617  0.11919382     0.00000
C995        C  0.57353582  0.07942167  0.10415961    -0.08600
C996        C  0.57003454  0.08193397  0.07346742    -0.06000
C997        C  0.58810399  0.10914720  0.05793389    -0.00100
C998        C  0.61184812  0.13352102  0.07262514    -0.08500
C999        C  0.63669141  0.16033608  0.05724101     0.61900
H1000       H  0.63075945  0.15189425  0.11473349     0.12500
H1001       H  0.55216638  0.06355026  0.06149825     0.12600
C1002       C  0.55543164  0.04833320  0.12016922     0.62100
F1003       F  0.67203113  0.15517579  0.06712131    -0.23100
F1004       F  0.62606563  0.19576207  0.06393292    -0.20400
F1005       F  0.63677894  0.15595024  0.02702883    -0.20100
F1006       F  0.52733958  0.06208947  0.13708358    -0.20100
F1007       F  0.58038549  0.03052167  0.13800210    -0.20500
F1008       F  0.54140633  0.02272621  0.10071581    -0.23100
C1009       C  0.76121152  0.06706229  0.27896835    -0.06000
C1010       C  0.74507363  0.09538858  0.26257379     0.00000
C1011       C  0.75965536  0.13158360  0.26509998    -0.08600
C1012       C  0.79042231  0.13705227  0.28299494    -0.06000
C1013       C  0.80708020  0.10835832  0.29820542    -0.00100
C1014       C  0.79131524  0.07310812  0.29740957    -0.08500
C1015       C  0.80487785  0.04109504  0.31565583     0.61900
H1016       H  0.74994558  0.03975383  0.27777952     0.12500
H1017       H  0.80320250  0.16365424  0.28393070     0.12600
C1018       C  0.74431719  0.16462244  0.24869072     0.62100
F1019       F  0.77573383  0.02492439  0.32950225    -0.23100
F1020       F  0.82935591  0.05145597  0.33735038    -0.20400
F1021       F  0.82120047  0.01549194  0.29736688    -0.20100
F1022       F  0.76450992  0.19595810  0.25365689    -0.20100
F1023       F  0.70932043  0.17201766  0.25805600    -0.20500
F1024       F  0.74445267  0.15796149  0.21865858    -0.23100
C1025       C  0.88993270  0.24355870  0.00509801    -0.06000
C1026       C  0.92100418  0.26355459  0.01338770     0.00000
C1027       C  0.94306937  0.25080742  0.03703185    -0.08600
C1028       C  0.93422969  0.21720554  0.05016924    -0.06000
C1029       C  0.90344544  0.19734197  0.04136904    -0.00100
C1030       C  0.88047481  0.21093096  0.01892455    -0.08500
C1031       C  0.84662039  0.19050040  0.00902930     0.61900
H1032       H  0.86500498  0.25679940  0.48188694     0.12500
H1033       H  0.95136899  0.20599858  0.06741315     0.12600
C1034       C  0.97475935  0.27283286  0.04920427     0.62100
F1035       F  0.81900981  0.21320269  0.48174051    -0.23100
F1036       F  0.82192812  0.18983290  0.03184336    -0.20400
F1037       F  0.84395299  0.16028167  0.49635483    -0.20100
F1038       F  0.96307065  0.30788121  0.05622534    -0.20100
F1039       F  0.00227599  0.27450943  0.02870572    -0.20500
F1040       F  0.98918236  0.25738145  0.07449029    -0.23100
C1041       C  0.01384685  0.97866251  0.50330503    -0.06000
C1042       C  0.03888863  0.00632781  0.99797668     0.00000
C1043       C  0.03512012  0.02952798  0.02308558    -0.08600
C1044       C  0.00298978  0.02774955  0.04021167    -0.06000
C1045       C  0.97369406  0.00393202  0.03365855    -0.00100
C1046       C  0.98186835  0.97803252  0.52081014    -0.08500
C1047       C  0.96183908  0.94231970  0.52509521     0.61900
H1048       H  0.02190896  0.95393572  0.49176458     0.12500
H1049       H  0.00039817  0.04594169  0.05897360     0.12600
C1050       C  0.06429860  0.05687798  0.03174034     0.62100
F1051       F  0.98060152  0.91285710  0.51310818    -0.23100
F1052       F  0.92798500  0.94403883  0.51180707    -0.20400
F1053       F  0.95772070  0.93593339  0.55487989    -0.20100
F1054       F  0.07267433  0.07843620  0.00784256    -0.20100
F1055       F  0.09512014  0.03851941  0.04130507    -0.20500
F1056       F  0.05313941  0.07994243  0.05430854    -0.23100
C1057       C  0.76061397  0.01972790  0.16898970    -0.06000
C1058       C  0.72514966  0.01310784  0.15864273     0.00000
C1059       C  0.72095792  0.00130513  0.12901196    -0.08600
C1060       C  0.75193341  0.00015684  0.11016555    -0.06000
C1061       C  0.78678191  0.01142364  0.11981014    -0.00100
C1062       C  0.79121243  0.01852397  0.15038166    -0.08500
C1063       C  0.82768351  0.02690592  0.16412149     0.61900
H1064       H  0.76425296  0.02857982  0.19166355     0.12500
H1065       H  0.74841331  0.99348667  0.08719253     0.12600
C1066       C  0.68352726  0.99221420  0.11711991     0.62100
F1067       F  0.82919637  0.06365134  0.17155103    -0.23100
F1068       F  0.85585034  0.01826107  0.14531206    -0.20400
F1069       F  0.83212641  0.00632190  0.18934471    -0.20100
F1070       F  0.66160866  0.02311864  0.11784898    -0.20100
F1071       F  0.66815524  0.96537777  0.13428044    -0.20500
F1072       F  0.68492095  0.97937748  0.08840364    -0.23100
C1073       C  0.76484297  0.12012840  0.99085404    -0.06000
C1074       C  0.76338594  0.09277410  0.01241919     0.00000
C1075       C  0.73478707  0.06304348  0.49143623    -0.08600
C1076       C  0.70210555  0.07427341  0.47784485    -0.06000
C1077       C  0.69242474  0.11143093  0.47472165    -0.00100
C1078       C  0.73340019  0.13186753  0.97555064    -0.08500
C1079       C  0.73614380  0.16212988  0.95300884     0.61900
H1080       H  0.79081384  0.13268578  0.98646550     0.12500
H1081       H  0.68306737  0.05375492  0.47027053     0.12600
C1082       C  0.74327935  0.02232057  0.49311999     0.62100
F1083       F  0.71826770  0.19308177  0.96323540    -0.23100
F1084       F  0.72068342  0.15091449  0.92662437    -0.20400
F1085       F  0.77191158  0.17144614  0.94766300    -0.20100
F1086       F  0.74296680  0.01097386  0.52204724    -0.20100
F1087       F  0.77698777  0.01531830  0.48099861    -0.20500
F1088       F  0.71817049  0.00147278  0.47766290    -0.23100
C1089       C  0.92777860  0.10173526  0.45693464    -0.06000
C1090       C  0.90872004  0.06979169  0.46358199     0.00000
C1091       C  0.89468472  0.04754991  0.44044687    -0.08600
C1092       C  0.89622423  0.06078073  0.41167241    -0.06000
C1093       C  0.91258695  0.09430532  0.40544075    -0.00100
C1094       C  0.93071593  0.11401439  0.42803960    -0.08500
C1095       C  0.95420546  0.14695366  0.42177160     0.61900
H1096       H  0.93920205  0.11805097  0.47468074     0.12500
H1097       H  0.88371377  0.04537945  0.39386994     0.12600
C1098       C  0.87866044  0.00993368  0.44559937     0.62100
F1099       F  0.97566889  0.15629275  0.44580064    -0.23100
F1100       F  0.93263551  0.17687186  0.41488863    -0.20400
F1101       F  0.97708980  0.13880283  0.39853719    -0.20100
F1102       F  0.84426693  0.01326758  0.45734808    -0.20100
F1103       F  0.90081056  0.99034218  0.46459475    -0.20500
F1104       F  0.87573701  0.99001530  0.41963850    -0.23100
C1105       C  0.92992749  0.13918653  0.19664497    -0.06000
C1106       C  0.92753532  0.10747087  0.21414648     0.00000
C1107       C  0.91930721  0.07328668  0.20055806    -0.08600
C1108       C  0.91642457  0.07210322  0.16987650    -0.06000
C1109       C  0.91818988  0.10385621  0.15318226    -0.00100
C1110       C  0.92522656  0.13788100  0.16626213    -0.08500
C1111       C  0.92829523  0.17233851  0.14797817     0.61900
H1112       H  0.93532414  0.16548063  0.20681499     0.12500
H1113       H  0.91175125  0.04648274  0.15854693     0.12600
C1114       C  0.91255195  0.03844515  0.21760221     0.62100
F1115       F  0.93485001  0.20289764  0.16527832    -0.23100
F1116       F  0.89638873  0.17837053  0.13243399    -0.20400
F1117       F  0.95671992  0.16834339  0.12840188    -0.20100
F1118       F  0.88299574  0.04324947  0.23595407    -0.20100
F1119       F  0.94277832  0.02974900  0.23397124    -0.20500
F1120       F  0.90552604  0.00881961  0.19931096    -0.23100
Fe1121     Fe  0.92028566  0.08894831  0.55874344     1.65800
Fe1122     Fe  0.83295810  0.10922877  0.57433769     1.73200
Fe1123     Fe  0.85269357  0.02952912  0.54026822     1.54400
O1124       O  0.87706252  0.04615483  0.00237634    -0.81900
O1125       O  0.80193433  0.06624060  0.58967164    -0.80200
O1126       O  0.93046435  0.07113509  0.01461428    -0.84400
O1127       O  0.93281535  0.03807223  0.57234470    -0.79200
O1128       O  0.80121759  0.05031720  0.52813317    -0.81000
O1129       O  0.85937041  0.11017008  0.61391492    -0.83700
C1130       C  0.93465944  0.01444719  0.55235324     0.97000
C1131       C  0.90737731  0.06037891  0.99540673     1.04500
O1132       O  0.86896345  0.07612976  0.55800376    -1.12700
O1133       O  0.85805063  0.15682098  0.56106058    -0.75200
O1134       O  0.91324281  0.14151512  0.54563076    -0.78600
O1135       O  0.90454538  0.00134545  0.54302900    -0.79300
C1136       C  0.88792793  0.16451797  0.54895041     0.95900
O1137       O  0.91842758  0.10346461  0.60261878    -0.77300
O1138       O  0.80526830  0.10991351  0.53533185    -0.82500
C1139       C  0.80427251  0.03171784  0.59304192     0.98500
C1140       C  0.79030544  0.08278954  0.52286483     1.04500
O1141       O  0.82920859  0.01231002  0.58039327    -0.78100
C1142       C  0.89275918  0.10848289  0.62090413     1.02800
Fe1143     Fe  0.58310335  0.11212849  0.71413897     1.65800
Fe1144     Fe  0.66735724  0.11935509  0.68980187     1.73200
Fe1145     Fe  0.64433579  0.04412283  0.72906775     1.54400
O1146       O  0.62401755  0.06539428  0.76818179    -0.81900
O1147       O  0.68573474  0.07448841  0.66650571    -0.80200
O1148       O  0.59303704  0.11799209  0.75863759    -0.84400
O1149       O  0.55608035  0.06614907  0.72406997    -0.79200
O1150       O  0.69522539  0.06182797  0.74286385    -0.81000
O1151       O  0.62921564  0.12863860  0.65696859    -0.83700
C1152       C  0.56185244  0.03270656  0.72777915     0.97000
C1153       C  0.60792338  0.09497270  0.77624423     1.04500
O1154       O  0.63164351  0.09045724  0.71047386    -1.12700
O1155       O  0.65515874  0.16587878  0.71401919    -0.75200
O1156       O  0.59698611  0.16520168  0.70557846    -0.78600
O1157       O  0.59309031  0.01826375  0.72270974    -0.79300
C1158       C  0.62440503  0.18082553  0.71601410     0.95900
O1159       O  0.57585523  0.10420980  0.66997275    -0.77300
O1160       O  0.70802277  0.11296133  0.71963786    -0.82500
C1161       C  0.68607485  0.03982516  0.66914012     0.98500
C1162       C  0.71537579  0.08938269  0.73877819     1.04500
O1163       O  0.66886059  0.02305745  0.68972542    -0.78100
C1164       C  0.59795035  0.11552735  0.65062571     1.02800
Fe1165     Fe  0.08700984  0.92959134  0.96735483     1.65800
Fe1166     Fe  0.17346448  0.91096103  0.94660658     1.73200
Fe1167     Fe  0.15426122  0.99156003  0.48508918     1.54400
O1168       O  0.10166939  0.01877732  0.48941417    -0.81900
O1169       O  0.20530686  0.90815693  0.98329240    -0.80200
O1170       O  0.07333249  0.98164639  0.95771402    -0.84400
O1171       O  0.08806087  0.94342196  0.51598141    -0.79200
O1172       O  0.17507595  0.00865732  0.94648231    -0.81000
O1173       O  0.15065673  0.86206385  0.96018349    -0.83700
C1174       C  0.11368411  0.95301278  0.53338639     0.97000
C1175       C  0.07328678  0.00306167  0.97935394     1.04500
O1176       O  0.13839520  0.94232806  0.96656191    -1.12700
O1177       O  0.14358151  0.91039936  0.90875676    -0.75200
O1178       O  0.08571527  0.91884003  0.92261646    -0.78600
O1179       O  0.14220285  0.96934376  0.52511587    -0.79300
C1180       C  0.10989187  0.91278742  0.90321066     0.95900
O1181       O  0.09580291  0.87626044  0.97682683    -0.77300
O1182       O  0.20107746  0.95638866  0.93031119    -0.82500
C1183       C  0.21824577  0.93684011  0.49133262     0.98500
C1184       C  0.19720124  0.99117903  0.92938831     1.04500
O1185       O  0.20677722  0.96970579  0.48975076    -0.78100
C1186       C  0.12105465  0.85338881  0.97239230     1.02800
Fe1187     Fe  0.42282713  0.93326969  0.81249346     1.65800
Fe1188     Fe  0.33679666  0.91427531  0.83187444     1.73200
Fe1189     Fe  0.35327297  0.99022800  0.79271696     1.54400
O1190       O  0.40380597  0.01870142  0.79130886    -0.81900
O1191       O  0.30688114  0.91084780  0.79409632    -0.80200
O1192       O  0.43579341  0.98595534  0.82122876    -0.84400
O1193       O  0.42325073  0.94035853  0.76687847    -0.79200
O1194       O  0.33187079  0.01242772  0.83234429    -0.81000
O1195       O  0.36049762  0.86526368  0.81869399    -0.83700
C1196       C  0.39961387  0.94991447  0.74759960     0.97000
C1197       C  0.43492933  0.00756546  0.79998227     1.04500
O1198       O  0.37137605  0.94591059  0.81287554    -1.12700
O1199       O  0.36592981  0.91468902  0.87036607    -0.75200
O1200       O  0.42350022  0.92472031  0.85740942    -0.78600
O1201       O  0.37039658  0.96695690  0.75424414    -0.79300
C1202       C  0.39925528  0.91892947  0.87676978     0.95900
O1203       O  0.41603044  0.87895324  0.80389509    -0.77300
O1204       O  0.30742889  0.95952815  0.84715997    -0.82500
C1205       C  0.29185653  0.93656377  0.78004560     0.98500
C1206       C  0.30891207  0.99446605  0.84795421     1.04500
O1207       O  0.30172070  0.96936108  0.78410416    -0.78100
C1208       C  0.39069848  0.85635825  0.80739912     1.02800
Fe1209     Fe  0.42484664  0.93284283  0.56137327     1.65800
Fe1210     Fe  0.40779590  0.84616602  0.58109810     1.73200
Fe1211     Fe  0.48426978  0.86508582  0.54403163     1.54400
O1212       O  0.46484911  0.88116058  0.00373707    -0.81900
O1213       O  0.45248060  0.81625968  0.59655146    -0.80200
O1214       O  0.43859421  0.93478265  0.01584256    -0.84400
O1215       O  0.47499616  0.94629622  0.57536389    -0.79200
O1216       O  0.46414120  0.81242818  0.53407552    -0.81000
O1217       O  0.40909961  0.87526191  0.61982021    -0.83700
C1218       C  0.49744756  0.94833521  0.55504344     0.97000
C1219       C  0.44872221  0.91077703  0.99694987     1.04500
O1220       O  0.43864231  0.88153033  0.56223616    -1.12700
O1221       O  0.35880465  0.87041487  0.56778512    -0.75200
O1222       O  0.37334157  0.92351788  0.54769260    -0.78600
O1223       O  0.51035557  0.91797174  0.54531919    -0.79300
C1224       C  0.35063992  0.89886456  0.55317746     0.95900
O1225       O  0.41038662  0.93352933  0.60508070    -0.77300
O1226       O  0.40527281  0.81600511  0.54319960    -0.82500
C1227       C  0.48680582  0.82035268  0.59903121     0.98500
C1228       C  0.43175044  0.80099800  0.53006477     1.04500
O1229       O  0.50408781  0.84480173  0.58452603    -0.78100
C1230       C  0.40852904  0.90944746  0.62500685     1.02800
Fe1231     Fe  0.43826814  0.59085992  0.71779603     1.65800
Fe1232     Fe  0.41433334  0.67575881  0.69661475     1.73200
Fe1233     Fe  0.49149513  0.66334378  0.73587306     1.54400
O1234       O  0.47261435  0.64486771  0.77493141    -0.81900
O1235       O  0.45650727  0.70840489  0.68144621    -0.80200
O1236       O  0.45110314  0.58990895  0.76235012    -0.84400
O1237       O  0.48995709  0.58168948  0.70501352    -0.79200
O1238       O  0.46641184  0.71395968  0.74566145    -0.81000
O1239       O  0.41804269  0.64566219  0.65858521    -0.83700
C1240       C  0.51276172  0.58207878  0.72551729     0.97000
C1241       C  0.45986025  0.61378432  0.78161652     1.04500
O1242       O  0.44775865  0.64313769  0.71666781    -1.12700
O1243       O  0.36761051  0.64885709  0.70981827    -0.75200
O1244       O  0.38562853  0.59673269  0.73038114    -0.78600
O1245       O  0.52285864  0.61344445  0.73497183    -0.79300
C1246       C  0.36146700  0.62035746  0.72472485     0.95900
O1247       O  0.42411895  0.58798924  0.67410093    -0.77300
O1248       O  0.40855808  0.70662463  0.73373544    -0.82500
C1249       C  0.49117345  0.70781181  0.68055177     0.98500
C1250       C  0.43304943  0.72308043  0.74815184     1.04500
O1251       O  0.51031074  0.68536592  0.69598430    -0.78100
C1252       C  0.41995691  0.61140559  0.65390280     1.02800
Fe1253     Fe  0.58658337  0.09575243  0.96200398     1.65800
Fe1254     Fe  0.60930760  0.18308751  0.94712288     1.73200
Fe1255     Fe  0.52238278  0.16244731  0.48369622     1.54400
O1256       O  0.49330184  0.11141215  0.48720038    -0.81900
O1257       O  0.61454190  0.21279056  0.98526416    -0.80200
O1258       O  0.53351694  0.08551015  0.95525276    -0.84400
O1259       O  0.57108750  0.09136583  0.50976583    -0.79200
O1260       O  0.51204283  0.18973999  0.94884843    -0.81000
O1261       O  0.65696199  0.15682500  0.96030297    -0.83700
C1262       C  0.56370550  0.11687786  0.52821132     0.97000
C1263       C  0.51486277  0.08453565  0.97803803     1.04500
O1264       O  0.57705843  0.14813848  0.96507943    -1.12700
O1265       O  0.60744441  0.15547238  0.90764513    -0.75200
O1266       O  0.59135406  0.09761556  0.91712326    -0.78600
O1267       O  0.54664015  0.14621785  0.52186855    -0.79300
C1268       C  0.59947092  0.12312911  0.89960973     0.95900
O1269       O  0.64089106  0.09944808  0.96789440    -0.77300
O1270       O  0.56456396  0.21419170  0.93304531    -0.82500
C1271       C  0.57743542  0.22432950  0.49336452     0.98500
C1272       C  0.52977096  0.21299140  0.93320659     1.04500
O1273       O  0.54467792  0.21413826  0.49066694    -0.78100
C1274       C  0.66429388  0.12447818  0.96840008     1.02800
Fe1275     Fe  0.59321203  0.43739704  0.81151573     1.65800
Fe1276     Fe  0.60984645  0.35398899  0.83973842     1.73200
Fe1277     Fe  0.53561627  0.36750085  0.79681530     1.54400
O1278       O  0.50836300  0.42006733  0.79325220    -0.81900
O1279       O  0.61569898  0.31829830  0.80566430    -0.80200
O1280       O  0.54208268  0.45132454  0.82286655    -0.84400
O1281       O  0.58147257  0.43455770  0.76641766    -0.79200
O1282       O  0.51355409  0.35044573  0.83739224    -0.81000
O1283       O  0.65892788  0.37677427  0.82689960    -0.83700
C1284       C  0.57108146  0.40940003  0.74856420     0.97000
C1285       C  0.51999309  0.45131453  0.80194443     1.04500
O1286       O  0.57999023  0.38626771  0.81590316    -1.12700
O1287       O  0.60513292  0.38849401  0.87488211    -0.75200
O1288       O  0.60602897  0.44438667  0.85544006    -0.78600
O1289       O  0.55704113  0.37976428  0.75703066    -0.79300
C1290       C  0.60541147  0.42310715  0.87735126     0.95900
O1291       O  0.64559420  0.42625334  0.80054271    -0.77300
O1292       O  0.56499680  0.32547168  0.85505196    -0.82500
C1293       C  0.59060889  0.30315015  0.79104493     0.98500
C1294       C  0.53040715  0.32781760  0.85439060     1.04500
O1295       O  0.55785254  0.31489415  0.79125033    -0.78100
C1296       C  0.66778895  0.40228195  0.80957215     1.02800
Fe1297     Fe  0.08305184  0.92823438  0.71806501     1.65800
Fe1298     Fe  0.10306181  0.84328488  0.69470315     1.73200
Fe1299     Fe  0.02849044  0.85753212  0.73597320     1.54400
O1300       O  0.05039696  0.87466069  0.77501681    -0.81900
O1301       O  0.05932146  0.81105965  0.68102429    -0.80200
O1302       O  0.07223671  0.92975540  0.76347072    -0.84400
O1303       O  0.03151256  0.93758744  0.70503242    -0.79200
O1304       O  0.05232075  0.80652222  0.74375971    -0.81000
O1305       O  0.09735194  0.87350346  0.65701831    -0.83700
C1306       C  0.00912037  0.93849882  0.72550564     0.97000
C1307       C  0.06521537  0.90481683  0.78211938     1.04500
O1308       O  0.07192642  0.87645287  0.71624581    -1.12700
O1309       O  0.15119369  0.87011322  0.70578421    -0.75200
O1310       O  0.13574811  0.92101410  0.72985205    -0.78600
O1311       O  0.99896752  0.90810124  0.73607247    -0.79300
C1312       C  0.15926009  0.89809648  0.72120596     0.95900
O1313       O  0.09614945  0.93099516  0.67413400    -0.77300
O1314       O  0.11014993  0.81232672  0.73157970    -0.82500
C1315       C  0.02464386  0.81249183  0.68093578     0.98500
C1316       C  0.08531570  0.79620533  0.74556567     1.04500
O1317       O  0.00692864  0.83616211  0.69637620    -0.78100
C1318       C  0.09751700  0.90793893  0.65314698     1.02800
Fe1319     Fe  0.08997567  0.59073744  0.55298355     1.65800
Fe1320     Fe  0.10788140  0.67546220  0.57922589     1.73200
Fe1321     Fe  0.03105814  0.66096950  0.54016160     1.54400
O1322       O  0.05430211  0.64396671  0.00075680    -0.81900
O1323       O  0.06333402  0.70372259  0.59683951    -0.80200
O1324       O  0.08141930  0.58941081  0.00811458    -0.84400
O1325       O  0.03895876  0.57585129  0.56415069    -0.79200
O1326       O  0.05127959  0.71385145  0.53516136    -0.81000
O1327       O  0.10816286  0.64251479  0.61561392    -0.83700
C1328       C  0.01468930  0.57778319  0.54473845     0.97000
C1329       C  0.07055648  0.61537800  0.99124892     1.04500
O1330       O  0.07643346  0.64198884  0.55782449    -1.12700
O1331       O  0.15652275  0.65292712  0.56419398    -0.75200
O1332       O  0.14234739  0.60075558  0.54149724    -0.78600
O1333       O  0.00390591  0.60948577  0.53682460    -0.79300
C1334       C  0.16475444  0.62541007  0.54834071     0.95900
O1335       O  0.10391886  0.58543809  0.59727606    -0.77300
O1336       O  0.10987974  0.70903931  0.54346158    -0.82500
C1337       C  0.02877104  0.70092760  0.59795968     0.98500
C1338       C  0.08342301  0.72429528  0.53037815     1.04500
O1339       O  0.01107677  0.67819559  0.58153879    -0.78100
C1340       C  0.10801706  0.60796421  0.61860888     1.02800
Fe1341     Fe  0.92572988  0.07924194  0.80635050     1.65800
Fe1342     Fe  0.90069028  0.16082617  0.83379976     1.73200
Fe1343     Fe  0.97366035  0.15497996  0.78940026     1.54400
O1344       O  0.00663159  0.10672265  0.78464123    -0.81900
O1345       O  0.88917386  0.19280798  0.79831951    -0.80200
O1346       O  0.97883648  0.07361034  0.81606594    -0.84400
O1347       O  0.93188694  0.08297470  0.76020482    -0.79200
O1348       O  0.99604471  0.17487797  0.82920324    -0.81000
O1349       O  0.85414830  0.13151678  0.82263229    -0.83700
C1350       C  0.93604487  0.10977084  0.74253918     0.97000
C1351       C  0.99878537  0.07508173  0.79405646     1.04500
O1352       O  0.93302573  0.13148544  0.80998387    -1.12700
O1353       O  0.91065777  0.12906766  0.86990124    -0.75200
O1354       O  0.91710142  0.07261220  0.85101742    -0.78600
O1355       O  0.95009698  0.13994328  0.75051670    -0.79300
C1356       C  0.91437996  0.09469091  0.87269940     0.95900
O1357       O  0.87203356  0.08251149  0.79732701    -0.77300
O1358       O  0.94293584  0.19506566  0.84751121    -0.82500
C1359       C  0.91199415  0.21052272  0.78357498     0.98500
C1360       C  0.97760249  0.19609471  0.84636645     1.04500
O1361       O  0.94596326  0.20427233  0.78548492    -0.78100
C1362       C  0.84754937  0.10400785  0.80616665     1.02800
Fe1363     Fe  0.92298836  0.42873658  0.95951675     1.65800
Fe1364     Fe  0.90285292  0.33990688  0.94546588     1.73200
Fe1365     Fe  0.97448626  0.36216120  0.47935137     1.54400
O1366       O  0.00096395  0.41390302  0.48135086    -0.81900
O1367       O  0.90147144  0.31285730  0.98428273    -0.80200
O1368       O  0.97472757  0.44108467  0.94914157    -0.84400
O1369       O  0.92358429  0.43099946  0.50636824    -0.79200
O1370       O  0.99941287  0.33583978  0.94151988    -0.81000
O1371       O  0.85560407  0.36512642  0.95918043    -0.83700
C1372       C  0.93451045  0.40687437  0.52482418     0.97000
C1373       C  0.99728480  0.44133200  0.96987635     1.04500
O1374       O  0.93526254  0.37669133  0.96161832    -1.12700
O1375       O  0.90139849  0.36545232  0.90599542    -0.75200
O1376       O  0.91250299  0.42503079  0.91474639    -0.78600
O1377       O  0.95183923  0.37793713  0.51779024    -0.79300
C1378       C  0.90570596  0.39809924  0.89763525     0.95900
O1379       O  0.86974085  0.42280947  0.96952192    -0.77300
O1380       O  0.94651769  0.30862626  0.92999422    -0.82500
C1381       C  0.92221801  0.29840914  0.49005341     0.98500
C1382       C  0.98097144  0.31127330  0.92754709     1.04500
O1383       O  0.95468532  0.30931724  0.48678483    -0.78100
C1384       C  0.84766383  0.39665609  0.96889298     1.02800
Fe1385     Fe  0.92338803  0.39642362  0.71080691     1.65800
Fe1386     Fe  0.83765207  0.39728293  0.68912446     1.73200
Fe1387     Fe  0.86984794  0.46739705  0.73149511     1.54400
O1388       O  0.89504187  0.44317687  0.76723364    -0.81900
O1389       O  0.82022506  0.44454260  0.66943568    -0.80200
O1390       O  0.91513100  0.38641903  0.75471632    -0.84400
O1391       O  0.95326994  0.43983569  0.72364157    -0.79200
O1392       O  0.82171698  0.44983443  0.74976977    -0.81000
O1393       O  0.87302238  0.38874922  0.65380685    -0.83700
C1394       C  0.95107424  0.47401161  0.72599132     0.97000
C1395       C  0.90624785  0.41098789  0.77362674     1.04500
O1396       O  0.87679140  0.42180240  0.70986359    -1.12700
O1397       O  0.84825527  0.34813802  0.70936289    -0.75200
O1398       O  0.90511522  0.34603870  0.69781707    -0.78600
O1399       O  0.92094301  0.49063259  0.72056807    -0.79300
C1400       C  0.87800619  0.33114230  0.70881527     0.95900
O1401       O  0.92829700  0.40882994  0.66762399    -0.77300
O1402       O  0.80094385  0.40413510  0.72232878    -0.82500
C1403       C  0.82079612  0.47863653  0.67506516     0.98500
C1404       C  0.79892340  0.42466813  0.74486008     1.04500
O1405       O  0.84002279  0.49256839  0.69618648    -0.78100
C1406       C  0.90505912  0.40029613  0.64789664     1.02800
Fe1407     Fe  0.58384712  0.43542849  0.56336803     1.65800
Fe1408     Fe  0.67026447  0.41258190  0.58115721     1.73200
Fe1409     Fe  0.65427433  0.49128687  0.54472958     1.54400
O1410       O  0.64100906  0.47761688  0.00537473    -0.81900
O1411       O  0.70420036  0.45468906  0.59590771    -0.80200
O1412       O  0.58854619  0.45198560  0.01848453    -0.84400
O1413       O  0.57482253  0.48750630  0.57648479    -0.79200
O1414       O  0.70276283  0.46636038  0.53136252    -0.81000
O1415       O  0.64292146  0.41562133  0.62044277    -0.83700
C1416       C  0.57463725  0.51080028  0.55645922     0.97000
C1417       C  0.61094474  0.46241964  0.99902260     1.04500
O1418       O  0.63586493  0.44628143  0.56325861    -1.12700
O1419       O  0.64326135  0.36531982  0.56819765    -0.75200
O1420       O  0.58915610  0.38201057  0.55092955    -0.78600
O1421       O  0.60545205  0.52321291  0.54892546    -0.79300
C1422       C  0.61374621  0.35828462  0.55482711     0.95900
O1423       O  0.58440386  0.42244559  0.60735890    -0.77300
O1424       O  0.69784579  0.40787503  0.54242430    -0.82500
C1425       C  0.70468075  0.48955725  0.59744701     0.98500
C1426       C  0.71157150  0.43302329  0.52714300     1.04500
O1427       O  0.68097174  0.50935143  0.58379016    -0.78100
C1428       C  0.60935093  0.41869997  0.62662741     1.02800
Fe1429     Fe  0.09151709  0.58154638  0.80433649     1.65800
Fe1430     Fe  0.17510639  0.60478133  0.82950217     1.73200
Fe1431     Fe  0.16501565  0.52753278  0.78906866     1.54400
O1432       O  0.11593609  0.49664138  0.78574610    -0.81900
O1433       O  0.21009762  0.60870166  0.79480336    -0.80200
O1434       O  0.08094831  0.52886001  0.81360518    -0.84400
O1435       O  0.09445553  0.57267429  0.75892952    -0.79200
O1436       O  0.18478410  0.50765888  0.83041502    -0.81000
O1437       O  0.15076709  0.65171690  0.81359811    -0.83700
C1438       C  0.11933511  0.56405987  0.74062380     0.97000
C1439       C  0.08390002  0.50665165  0.79266755     1.04500
O1440       O  0.14364946  0.57148987  0.80787746    -1.12700
O1441       O  0.14179141  0.60396257  0.86543102    -0.75200
O1442       O  0.08568324  0.59150195  0.84876085    -0.78600
O1443       O  0.14912191  0.54869387  0.74871215    -0.79300
C1444       C  0.10808908  0.59869717  0.86934080     0.95900
O1445       O  0.09691082  0.63582660  0.79525022    -0.77300
O1446       O  0.20448167  0.56178096  0.84789709    -0.82500
C1447       C  0.22690923  0.58312635  0.78170535     0.98500
C1448       C  0.20458514  0.52689629  0.84833622     1.04500
O1449       O  0.21620738  0.55033144  0.78334361    -0.78100
C1450       C  0.12144677  0.65913691  0.80011856     1.02800
Fe1451     Fe  0.43812225  0.59010690  0.96680912     1.65800
Fe1452     Fe  0.35308858  0.60856138  0.94244928     1.73200
Fe1453     Fe  0.36203119  0.53384283  0.48597766     1.54400
O1454       O  0.41148349  0.50276656  0.48799791    -0.81900
O1455       O  0.31954880  0.61242666  0.97790862    -0.80200
O1456       O  0.45048391  0.53825193  0.95510108    -0.84400
O1457       O  0.43306756  0.58089923  0.51259543    -0.79200
O1458       O  0.34661742  0.51126240  0.94263857    -0.81000
O1459       O  0.37584208  0.65732071  0.95728200    -0.83700
C1460       C  0.40940216  0.57231015  0.53158662     0.97000
C1461       C  0.45023916  0.51594737  0.97585579     1.04500
O1462       O  0.38665820  0.57715232  0.96393004    -1.12700
O1463       O  0.38526206  0.60658251  0.90566707    -0.75200
O1464       O  0.44206273  0.60266499  0.92328293    -0.78600
O1465       O  0.37951925  0.55696559  0.52465669    -0.79300
C1466       C  0.41952876  0.60572089  0.90229956     0.95900
O1467       O  0.42890625  0.64321504  0.97822040    -0.77300
O1468       O  0.32401294  0.56430647  0.92567584    -0.82500
C1469       C  0.30019769  0.59111207  0.49232214     0.98500
C1470       C  0.32458472  0.52943747  0.92592227     1.04500
O1471       O  0.31154247  0.55826073  0.49336511    -0.78100
C1472       C  0.40369162  0.66563259  0.97246946     1.02800
C1473       C  0.26028435  0.51170474  0.91851971    -0.06000
C1474       C  0.29576257  0.51155840  0.90703341     0.00000
C1475       C  0.29930112  0.50751740  0.87605491    -0.08600
C1476       C  0.26786404  0.50634018  0.85780172    -0.06000
C1477       C  0.23252278  0.51056523  0.86899750    -0.00100
C1478       C  0.22880802  0.51229677  0.90016968    -0.08500
C1479       C  0.19175605  0.51707277  0.91401102     0.61900
H1480       H  0.25742537  0.51567161  0.94205288     0.12500
H1481       H  0.27129487  0.50632396  0.83409448     0.12600
C1482       C  0.33545736  0.50890915  0.86072366     0.62100
F1483       F  0.19354042  0.51683084  0.94447721    -0.23100
F1484       F  0.16960749  0.48866505  0.90497010    -0.20400
F1485       F  0.17665819  0.55010894  0.90553313    -0.20100
F1486       F  0.36454007  0.50601196  0.88002000    -0.20100
F1487       F  0.33750617  0.54175418  0.84589589    -0.20500
F1488       F  0.33788548  0.48033855  0.84064749    -0.23100
C1489       C  0.51306802  0.53743435  0.98969141    -0.06000
C1490       C  0.47609918  0.51143596  0.50066991     0.00000
C1491       C  0.47837064  0.49040861  0.52686377    -0.08600
C1492       C  0.51014632  0.49270293  0.54470573    -0.06000
C1493       C  0.54010036  0.51536675  0.53803692    -0.00100
C1494       C  0.54391666  0.54133200  0.00837446    -0.08500
C1495       C  0.57232605  0.56981621  0.00098140     0.61900
H1496       H  0.51140575  0.55407611  0.97013936     0.12500
H1497       H  0.51192868  0.47590944  0.56416996     0.12600
C1498       C  0.44795641  0.46504380  0.53607516     0.62100
F1499       F  0.56091269  0.59250239  0.97840789    -0.23100
F1500       F  0.60416234  0.55279507  0.99218692    -0.20400
F1501       F  0.57911043  0.59168403  0.02539213    -0.20100
F1502       F  0.44012253  0.44078480  0.51342392    -0.20100
F1503       F  0.41721057  0.48523247  0.54296974    -0.20500
F1504       F  0.45726420  0.44472991  0.56064466    -0.23100
C1505       C  0.01843771  0.47363391  0.73059514    -0.06000
C1506       C  0.98533494  0.49120243  0.73813560     0.00000
C1507       C  0.98557389  0.51486871  0.76296851    -0.08600
C1508       C  0.01793723  0.51835718  0.78001073    -0.06000
C1509       C  0.05053713  0.49892226  0.77355752    -0.00100
C1510       C  0.05057217  0.47628645  0.74789834    -0.13300
C1511       C  0.08360970  0.45364653  0.73905583     0.61900
H1512       H  0.01819645  0.45554688  0.71160052     0.12500
H1513       H  0.01765027  0.53638149  0.79900380     0.12600
C1514       C  0.95150328  0.53543751  0.77213126     0.62100
F1515       F  0.07628847  0.43063956  0.71541006    -0.23100
F1516       F  0.09462450  0.43200884  0.76237734    -0.20400
F1517       F  0.11162846  0.47642447  0.73096334    -0.20100
F1518       F  0.92538656  0.51097134  0.78107565    -0.20100
F1519       F  0.93823505  0.55544596  0.74862558    -0.20500
F1520       F  0.95814162  0.55953929  0.79517874    -0.23100
C1521       C  0.80095161  0.49985827  0.62576686    -0.06000
C1522       C  0.79517946  0.50068677  0.65626160     0.00000
C1523       C  0.75965429  0.50976914  0.66628405    -0.08600
C1524       C  0.73031841  0.51174553  0.64577627    -0.06000
C1525       C  0.73545971  0.50535414  0.61554088    -0.00100
C1526       C  0.77188934  0.50290239  0.60532336    -0.08500
C1527       C  0.77994656  0.50202882  0.57276471     0.61900
H1528       H  0.82803694  0.49324087  0.61802307     0.12500
H1529       H  0.70279473  0.51516587  0.65355506     0.12600
C1530       C  0.75243972  0.51453206  0.69882860     0.62100
F1531       F  0.81683933  0.50466518  0.56733015    -0.23100
F1532       F  0.76265711  0.53125276  0.55935959    -0.20400
F1533       F  0.76771932  0.46971750  0.56058629    -0.20100
F1534       F  0.77577105  0.54054755  0.71038776    -0.20100
F1535       F  0.75801382  0.48169038  0.71300965    -0.20500
F1536       F  0.71716741  0.52602991  0.70417032    -0.23100
C1537       C  0.75333274  0.38619528  0.50589928    -0.06000
C1538       C  0.74045658  0.42265486  0.50550357     0.00000
C1539       C  0.75602444  0.44733470  0.48508758    -0.08600
C1540       C  0.78941738  0.42979595  0.97011807    -0.06000
C1541       C  0.81237733  0.40320446  0.98244713    -0.00100
C1542       C  0.78350282  0.37457078  0.48941611    -0.08500
C1543       C  0.79594034  0.33485394  0.49107706     0.61900
H1544       H  0.74055894  0.36681064  0.52030533     0.12500
H1545       H  0.79636307  0.44089415  0.94884284     0.12600
C1546       C  0.74044608  0.48523281  0.47921565     0.62100
F1547       F  0.77289268  0.31394980  0.50799415    -0.23100
F1548       F  0.83025561  0.33272147  0.50346893    -0.20400
F1549       F  0.83019875  0.32856483  0.00638451    -0.20100
F1550       F  0.74622593  0.50786089  0.50325024    -0.20100
F1551       F  0.69794608  0.45462947  0.97002457    -0.20500
F1552       F  0.74214473  0.47485115  0.94095367    -0.23100
C1553       C  0.95582918  0.40319716  0.57558103    -0.06000
C1554       C  0.92715195  0.41144199  0.55622387     0.00000
C1555       C  0.89160574  0.41666991  0.56707056    -0.08600
C1556       C  0.88608148  0.41380660  0.59737166    -0.06000
C1557       C  0.91458455  0.40462995  0.61675591    -0.00100
C1558       C  0.95032895  0.39947237  0.60584572    -0.08500
C1559       C  0.98235846  0.38874666  0.62540776     0.61900
H1560       H  0.98261533  0.39852164  0.56647621     0.12500
H1561       H  0.85906274  0.41809991  0.60612571     0.12600
C1562       C  0.85928219  0.42234254  0.54670675     0.62100
F1563       F  0.01312880  0.38045268  0.60918805    -0.23100
F1564       F  0.97377403  0.35812348  0.64162752    -0.20400
F1565       F  0.99096283  0.41742481  0.64417951    -0.20100
F1566       F  0.85777449  0.39381809  0.52670952    -0.20100
F1567       F  0.86269205  0.45506629  0.53194212    -0.20500
F1568       F  0.82671981  0.42307125  0.56178791    -0.23100
C1569       C  0.93854924  0.40135947  0.85159314    -0.06000
C1570       C  0.90511179  0.40358188  0.86609637     0.00000
C1571       C  0.87215644  0.40511124  0.85013743    -0.08600
C1572       C  0.87381863  0.40432807  0.81942208    -0.06000
C1573       C  0.90728827  0.40294293  0.80483800    -0.00100
C1574       C  0.94026131  0.40164650  0.82083369    -0.08500
C1575       C  0.97677063  0.40219383  0.80552112     0.61900
H1576       H  0.96326993  0.39943194  0.86463283     0.12500
H1577       H  0.84904422  0.40618752  0.80644081     0.12600
C1578       C  0.83579929  0.40884486  0.86556683     0.62100
F1579       F  0.98003750  0.43435769  0.78999402    -0.23100
F1580       F  0.97945047  0.37282794  0.78627307    -0.20400
F1581       F  0.00545048  0.40010528  0.82535778    -0.20100
F1582       F  0.83564122  0.44043431  0.88254908    -0.20100
F1583       F  0.83017556  0.37905918  0.88351780    -0.20500
F1584       F  0.80709809  0.41087276  0.84574004    -0.23100
C1585       C  0.99757939  0.21736340  0.89589693    -0.06000
C1586       C  0.99492277  0.22456523  0.86566958     0.00000
C1587       C  0.99781732  0.26153321  0.85635307    -0.08600
C1588       C  0.99924942  0.29007184  0.87767724    -0.06000
C1589       C  0.99818539  0.28292833  0.90800333    -0.00100
C1590       C  0.00001041  0.24577640  0.91710563    -0.08500
C1591       C  0.00033859  0.23504094  0.94921170     0.61900
H1592       H  0.99485156  0.18932806  0.90322695     0.12500
H1593       H  0.99687702  0.31829470  0.87068836     0.12600
C1594       C  0.99406296  0.27142107  0.82416629     0.62100
F1595       F  0.02416725  0.20606500  0.95346623    -0.23100
F1596       F  0.96582158  0.22443550  0.95735786    -0.20400
F1597       F  0.01166155  0.26350025  0.96715820    -0.20100
F1598       F  0.95801299  0.26883522  0.81575877    -0.20100
F1599       F  0.01489318  0.24799160  0.80704574    -0.20500
F1600       F  0.00553194  0.30680888  0.81905720    -0.23100
C1601       C  0.86328793  0.29250181  0.75078241    -0.06000
C1602       C  0.88250913  0.29624041  0.72438688     0.00000
C1603       C  0.90898109  0.26967107  0.71631450    -0.08600
C1604       C  0.91681945  0.24147954  0.73613032    -0.06000
C1605       C  0.89926202  0.23916324  0.76337373    -0.00100
C1606       C  0.87148771  0.26457632  0.77077699    -0.08500
C1607       C  0.85201605  0.26375464  0.80019438     0.61900
H1608       H  0.84316125  0.31307979  0.75652480     0.12500
H1609       H  0.93763605  0.22142574  0.73078110     0.12600
C1610       C  0.92927502  0.27093469  0.68724940     0.62100
F1611       F  0.83004428  0.29426374  0.80433972    -0.23100
F1612       F  0.87715685  0.26297222  0.82298344    -0.20400
F1613       F  0.83022157  0.23312694  0.80149850    -0.20100
F1614       F  0.95522267  0.29811562  0.68823123    -0.20100
F1615       F  0.90512886  0.27765010  0.66439515    -0.20500
F1616       F  0.94696164  0.23815574  0.68123177    -0.23100
C1617       C  0.24609457  0.61771812  0.99398885    -0.06000
C1618       C  0.26740097  0.60212687  0.50896318     0.00000
C1619       C  0.26098759  0.59196647  0.53862877    -0.08600
C1620       C  0.22769660  0.60200186  0.55165389    -0.06000
C1621       C  0.20142561  0.62192555  0.53603744    -0.00100
C1622       C  0.21289550  0.62720511  0.00681974    -0.08500
C1623       C  0.18486331  0.64803568  0.98907065     0.61900
H1624       H  0.25181329  0.62622393  0.97170420     0.12500
H1625       H  0.22134575  0.59326068  0.57376066     0.12600
C1626       C  0.28924378  0.57157777  0.55673693     0.62100
F1627       F  0.19773123  0.65822625  0.96176418    -0.23100
F1628       F  0.17492665  0.67937730  0.00426951    -0.20400
F1629       F  0.15492550  0.62600452  0.98466773    -0.20100
F1630       F  0.32197548  0.58983589  0.55550715    -0.20100
F1631       F  0.29354452  0.53634455  0.54597082    -0.20500
F1632       F  0.27939679  0.56932838  0.58604214    -0.23100
C1633       C  0.00520083  0.47678504  0.52007683    -0.06000
C1634       C  0.99817952  0.47987881  0.48966466     0.00000
C1635       C  0.99510503  0.51218494  0.97813020    -0.08600
C1636       C  0.99843512  0.54236111  0.99795969    -0.06000
C1637       C  0.00499803  0.54356525  0.52732841    -0.00100
C1638       C  0.00823147  0.50760898  0.53908353    -0.08500
C1639       C  0.01414865  0.50136062  0.57180680     0.61900
H1640       H  0.00754794  0.44959899  0.52921836     0.12500
H1641       H  0.99334417  0.56980925  0.99006100     0.12600
C1642       C  0.98330281  0.51954713  0.94658872     0.62100
F1643       F  0.00785089  0.46543052  0.57947169    -0.23100
F1644       F  0.99056164  0.52322443  0.58789706    -0.20400
F1645       F  0.04965578  0.50939810  0.57948871    -0.20100
F1646       F  0.98408102  0.55649889  0.94005493    -0.20100
F1647       F  0.94815836  0.50737504  0.94215779    -0.20500
F1648       F  0.00627226  0.50168978  0.92722325    -0.23100
C1649       C  0.07620279  0.57715568  0.94612265    -0.06000
C1650       C  0.07770195  0.61215960  0.95921381     0.00000
C1651       C  0.08823730  0.64261438  0.94182384    -0.08600
C1652       C  0.09667274  0.63676851  0.91221624    -0.06000
C1653       C  0.09478972  0.60214343  0.89941141    -0.00100
C1654       C  0.08440464  0.57166097  0.91620193    -0.08500
C1655       C  0.08171563  0.53377498  0.90246866     0.61900
H1656       H  0.06813321  0.55413591  0.95942829     0.12500
H1657       H  0.10495231  0.65941168  0.89855111     0.12600
C1658       C  0.09092746  0.68132104  0.95377591     0.62100
F1659       F  0.07852403  0.50698484  0.92366189    -0.23100
F1660       F  0.11225581  0.52577151  0.88607569    -0.20400
F1661       F  0.05166229  0.53251092  0.88407280    -0.20100
F1662       F  0.10946935  0.68164745  0.98014611    -0.20100
F1663       F  0.05635444  0.69515511  0.95757657    -0.20500
F1664       F  0.10926133  0.70430612  0.93491654    -0.23100
C1665       C  0.08042493  0.59748405  0.66654885    -0.06000
C1666       C  0.11094710  0.59379706  0.64868169     0.00000
C1667       C  0.14368859  0.57976894  0.66035352    -0.08600
C1668       C  0.14454763  0.56905572  0.69001634    -0.06000
C1669       C  0.11417957  0.57325025  0.70867652    -0.00100
C1670       C  0.08121568  0.58795058  0.69647295    -0.08500
C1671       C  0.04679433  0.59429299  0.71423470     0.61900
H1672       H  0.05597750  0.60896693  0.65677305     0.12500
H1673       H  0.16968487  0.55845285  0.69899332     0.12600
C1674       C  0.17784965  0.57779197  0.64179529     0.62100
F1675       F  0.01809556  0.60667958  0.69701079    -0.23100
F1676       F  0.05288977  0.62042253  0.73587036    -0.20400
F1677       F  0.03613876  0.56184850  0.72673901    -0.20100
F1678       F  0.18680381  0.61253409  0.63247476    -0.20100
F1679       F  0.17192470  0.55560891  0.61746371    -0.20500
F1680       F  0.20719585  0.56373838  0.65738099    -0.23100
C1681       C  0.03164733  0.00081313  0.73931499    -0.06000
C1682       C  0.00384816  0.97426297  0.74163212     0.00000
C1683       C  0.97429473  0.98188584  0.76050744    -0.08600
C1684       C  0.97458088  0.01463410  0.77731781    -0.06000
C1685       C  0.00276318  0.04084768  0.77557124    -0.00100
C1686       C  0.03146492  0.03404978  0.75558510    -0.08500
C1687       C  0.06157477  0.06160475  0.75113343     0.61900
H1688       H  0.05416023  0.99524131  0.72469537     0.12500
H1689       H  0.95219462  0.01992967  0.79212391     0.12600
C1690       C  0.94264725  0.95567810  0.76324358     0.62100
F1691       F  0.08865891  0.04802404  0.73296060    -0.23100
F1692       F  0.07727257  0.07062405  0.77794667    -0.20400
F1693       F  0.04740099  0.09279444  0.73823033    -0.20100
F1694       F  0.95361321  0.92495286  0.77859204    -0.20100
F1695       F  0.93034715  0.94539225  0.73555341    -0.20500
F1696       F  0.91372966  0.97151162  0.77810573    -0.23100
C1697       C  0.01025432  0.71905094  0.64881029    -0.06000
C1698       C  0.01041355  0.72725955  0.61865999     0.00000
C1699       C  0.00370618  0.76417748  0.61028778    -0.08600
C1700       C  0.00222219  0.79202052  0.63210895    -0.06000
C1701       C  0.00638901  0.78418594  0.66208280    -0.00100
C1702       C  0.00698078  0.74678895  0.67057081    -0.08500
C1703       C  0.00705678  0.73541991  0.70251044     0.61900
H1704       H  0.01516724  0.69101598  0.65554507     0.12500
H1705       H  0.00215575  0.82050208  0.62559360     0.12600
C1706       C  0.00322345  0.77509608  0.57827962     0.62100
F1707       F  0.04173934  0.72474752  0.71085636    -0.23100
F1708       F  0.99534698  0.76358817  0.72063814    -0.20400
F1709       F  0.98365696  0.70631767  0.70620894    -0.20100
F1710       F  0.98193816  0.75108148  0.56211372    -0.20100
F1711       F  0.03832106  0.77454702  0.56773220    -0.20500
F1712       F  0.98914386  0.81002076  0.57459626    -0.23100
C1713       C  0.08444262  0.71522092  0.79833245    -0.06000
C1714       C  0.11543134  0.69620430  0.78888685     0.00000
C1715       C  0.13770459  0.71103365  0.76683066    -0.08600
C1716       C  0.12723332  0.74430009  0.75409153    -0.06000
C1717       C  0.09527361  0.76296254  0.76251607    -0.00100
C1718       C  0.07409185  0.74886805  0.78594800    -0.08500
C1719       C  0.04127703  0.76897135  0.79852886     0.61900
H1720       H  0.06799252  0.70299091  0.81531527     0.12500
H1721       H  0.14354832  0.75531054  0.73652418     0.12600
C1722       C  0.17129002  0.69090328  0.75570131     0.62100
F1723       F  0.02895699  0.75282783  0.82404961    -0.23100
F1724       F  0.01292407  0.76877729  0.77845637    -0.20400
F1725       F  0.05045809  0.80463761  0.80540699    -0.20100
F1726       F  0.16163707  0.65670791  0.74506276    -0.20100
F1727       F  0.19622752  0.68695731  0.77837034    -0.20500
F1728       F  0.18815131  0.70955767  0.73320754    -0.23100
C1729       C  0.72440576  0.43645337  0.80284759    -0.06000
C1730       C  0.70499479  0.40407545  0.79817397     0.00000
C1731       C  0.71863070  0.37699225  0.77881096    -0.08600
C1732       C  0.75033713  0.38445484  0.76309747    -0.06000
C1733       C  0.76858546  0.41815800  0.76580316    -0.00100
C1734       C  0.75663071  0.44387415  0.78750310    -0.08500
C1735       C  0.77682735  0.47911280  0.79453152     0.61900
H1736       H  0.71326834  0.45646819  0.81808593     0.12500
H1737       H  0.76045329  0.36407682  0.74774189     0.12600
C1738       C  0.69868095  0.34123965  0.77351135     0.62100
F1739       F  0.76001674  0.49922317  0.81659503    -0.23100
F1740       F  0.77827494  0.50093421  0.76986797    -0.20400
F1741       F  0.81171246  0.47101354  0.80412113    -0.20100
F1742       F  0.66421876  0.34836005  0.76248495    -0.20100
F1743       F  0.69602648  0.32250971  0.79970111    -0.20500
F1744       F  0.71653715  0.31872446  0.75357506    -0.23100
C1745       C  0.56824959  0.39768319  0.66540879    -0.06000
C1746       C  0.59850170  0.41847517  0.65765248     0.00000
C1747       C  0.61603885  0.44046640  0.67910431    -0.08600
C1748       C  0.60558624  0.43725035  0.70850109    -0.06000
C1749       C  0.57702336  0.41434041  0.71676234    -0.00100
C1750       C  0.55635167  0.39596796  0.69462779    -0.08500
C1751       C  0.52170710  0.37501944  0.70106618     0.61900
H1752       H  0.55419370  0.38230141  0.64836655     0.12500
H1753       H  0.62051962  0.45204437  0.72536305     0.12600
C1754       C  0.64490433  0.46800512  0.67107076     0.62100
F1755       F  0.50092635  0.37004577  0.67582870    -0.23100
F1756       F  0.50042926  0.39397681  0.72105929    -0.20400
F1757       F  0.53027910  0.34097819  0.71223013    -0.20100
F1758       F  0.63296941  0.48902746  0.64764849    -0.20100
F1759       F  0.67664877  0.44988251  0.66354975    -0.20500
F1760       F  0.65245523  0.49153689  0.69429929    -0.23100
C1761       C  0.58082166  0.41949051  0.92685636    -0.06000
C1762       C  0.60299369  0.43842198  0.90725437     0.00000
C1763       C  0.62236830  0.46954921  0.91704227    -0.08600
C1764       C  0.62189256  0.47794436  0.94717888    -0.06000
C1765       C  0.60280992  0.45642297  0.96745344    -0.00100
C1766       C  0.57990630  0.42805211  0.95687270    -0.08500
C1767       C  0.55560717  0.40563472  0.97663369     0.61900
H1768       H  0.56479905  0.39692016  0.91840358     0.12500
H1769       H  0.63766502  0.50083871  0.95530071     0.12600
C1770       C  0.64427447  0.49312237  0.89631486     0.62100
F1771       F  0.53475176  0.38107149  0.96072515    -0.23100
F1772       F  0.53189862  0.42841661  0.99169408    -0.20400
F1773       F  0.57662288  0.38582254  0.99620607    -0.20100
F1774       F  0.62112922  0.50988668  0.87640598    -0.20100
F1775       F  0.66938214  0.47178962  0.88134306    -0.20500
F1776       F  0.66301772  0.52040561  0.91118531    -0.23100
C1777       C  0.50587797  0.23576955  0.88504051    -0.06000
C1778       C  0.51137699  0.24218306  0.91524269     0.00000
C1779       C  0.51172776  0.27915046  0.92517659    -0.08600
C1780       C  0.51286020  0.30788218  0.90443162    -0.06000
C1781       C  0.51125954  0.30122939  0.87391288    -0.00100
C1782       C  0.50490050  0.26458107  0.86433967    -0.08500
C1783       C  0.50047182  0.25394239  0.83223645     0.61900
H1784       H  0.50506167  0.20788296  0.87710015     0.12500
H1785       H  0.51824967  0.33549245  0.91208973     0.12600
C1786       C  0.51606052  0.28872074  0.95743894     0.62100
F1787       F  0.53149366  0.23600785  0.82272204    -0.23100
F1788       F  0.49398951  0.28383441  0.81449163    -0.20400
F1789       F  0.47124738  0.23053243  0.82911761    -0.20100
F1790       F  0.50230708  0.26147040  0.97501311    -0.20100
F1791       F  0.49706777  0.32048258  0.96398336    -0.20500
F1792       F  0.55248992  0.29379322  0.96389643    -0.23100
C1793       C  0.62967593  0.28157616  0.00867905    -0.06000
C1794       C  0.58671165  0.25699842  0.51176123     0.00000
C1795       C  0.56382896  0.27184540  0.53418181    -0.08600
C1796       C  0.57459563  0.30429248  0.54858469    -0.06000
C1797       C  0.60753663  0.32146365  0.54226865    -0.00100
C1798       C  0.63126702  0.30565937  0.52127483    -0.08500
C1799       C  0.67197708  0.33588347  0.01118332     0.61900
H1800       H  0.64539937  0.27175719  0.99014114     0.12500
H1801       H  0.55694230  0.31711159  0.56469937     0.12600
C1802       C  0.52856236  0.25392974  0.54358910     0.62100
F1803       F  0.68850610  0.31846609  0.98756718    -0.23100
F1804       F  0.69771188  0.33964438  0.03328965    -0.20400
F1805       F  0.66064406  0.37016679  0.00202674    -0.20100
F1806       F  0.51399024  0.27060332  0.56836364    -0.20100
F1807       F  0.53473846  0.21755482  0.55024213    -0.20500
F1808       F  0.50293566  0.25648525  0.52139644    -0.23100
C1809       C  0.30835927  0.58068941  0.72933461    -0.06000
C1810       C  0.32502900  0.61386247  0.73663091     0.00000
C1811       C  0.30955887  0.63696931  0.75830711    -0.08600
C1812       C  0.27726079  0.62599184  0.77186232    -0.06000
C1813       C  0.26056978  0.59226770  0.76517151    -0.00100
C1814       C  0.27642332  0.56913174  0.74323943    -0.08500
C1815       C  0.26060821  0.53228232  0.73440470     0.61900
H1816       H  0.32146972  0.56327691  0.71311121     0.12500
H1817       H  0.26540938  0.64348851  0.78861009     0.12600
C1818       C  0.32803188  0.67213046  0.76813979     0.62100
F1819       F  0.27884443  0.51658833  0.71084460    -0.23100
F1820       F  0.22465670  0.53649550  0.72610389    -0.20400
F1821       F  0.26320281  0.50831508  0.75775054    -0.20100
F1822       F  0.32963345  0.69607509  0.74479274    -0.20100
F1823       F  0.36290404  0.66445316  0.77804808    -0.20500
F1824       F  0.30949376  0.68944469  0.79079835    -0.23100
C1825       C  0.52741080  0.55124744  0.77360381    -0.06000
C1826       C  0.51855764  0.54750665  0.74355822     0.00000
C1827       C  0.50973049  0.51164536  0.73304671    -0.08600
C1828       C  0.50832878  0.48200303  0.75308625    -0.06000
C1829       C  0.51643546  0.48579644  0.78329265    -0.00100
C1830       C  0.52622906  0.52160930  0.79363650    -0.08500
C1831       C  0.53430006  0.52953596  0.82592819     0.61900
H1832       H  0.53412440  0.57831259  0.78169684     0.12500
H1833       H  0.50133196  0.45511742  0.74497659     0.12600
C1834       C  0.50221091  0.50397501  0.70064079     0.62100
F1835       F  0.53635320  0.56672285  0.83180711    -0.23100
F1836       F  0.56732976  0.51416285  0.83378487    -0.20400
F1837       F  0.50699133  0.51546507  0.84322231    -0.20100
F1838       F  0.52786746  0.52110478  0.68347174    -0.20100
F1839       F  0.46781090  0.51640926  0.69315190    -0.20500
F1840       F  0.50383709  0.46692615  0.69418233    -0.23100
C1841       C  0.42127099  0.57884360  0.85320224    -0.06000
C1842       C  0.43379140  0.60601815  0.87245461     0.00000
C1843       C  0.45964430  0.63168721  0.86310201    -0.08600
C1844       C  0.46982828  0.63092890  0.83352025    -0.06000
C1845       C  0.45423929  0.60619670  0.81317973    -0.00100
C1846       C  0.43131535  0.57791353  0.82355485    -0.08500
C1847       C  0.41642075  0.54743526  0.80397748     0.61900
H1848       H  0.40293868  0.55857865  0.86169047     0.12500
H1849       H  0.48923011  0.65077537  0.82588137     0.12600
C1850       C  0.47486682  0.66090800  0.88368830     0.62100
F1851       F  0.39850485  0.52115607  0.81991794    -0.23100
F1852       F  0.44445342  0.52968617  0.78956401    -0.20400
F1853       F  0.39205422  0.56174443  0.78377118    -0.20100
F1854       F  0.49476563  0.64476597  0.90606869    -0.20100
F1855       F  0.44663488  0.68117724  0.89566439    -0.20500
F1856       F  0.49763943  0.68474687  0.86921028    -0.23100
C1857       C  0.39470920  0.56169509  0.58368691    -0.06000
C1858       C  0.41626613  0.58034756  0.56318656     0.00000
C1859       C  0.44124989  0.60734055  0.57345745    -0.08600
C1860       C  0.44179855  0.61583512  0.60356664    -0.06000
C1861       C  0.41878840  0.59854441  0.62339373    -0.00100
C1862       C  0.39517662  0.57061537  0.61369443    -0.08500
C1863       C  0.36939058  0.55156123  0.63456351     0.61900
H1864       H  0.37659841  0.54041022  0.57594971     0.12500
H1865       H  0.46000648  0.63666425  0.61204139     0.12600
C1866       C  0.46645865  0.62833213  0.55333082     0.62100
F1867       F  0.34561398  0.52858327  0.61972669    -0.23100
F1868       F  0.34890774  0.57733880  0.64970402    -0.20400
F1869       F  0.38899991  0.53064876  0.65441154    -0.20100
F1870       F  0.44615379  0.64783151  0.53306719    -0.20100
F1871       F  0.48975709  0.60436530  0.53904248    -0.20500
F1872       F  0.48777441  0.65314429  0.56868872    -0.23100
C1873       C  0.48236328  0.04694906  0.52377260    -0.06000
C1874       C  0.50223895  0.04555639  0.49738011     0.00000
C1875       C  0.52921117  0.01500217  0.98812314    -0.08600
C1876       C  0.52721409  0.98473434  0.00767115    -0.06000
C1877       C  0.50089601  0.98402831  0.53778055    -0.00100
C1878       C  0.48061463  0.01705826  0.54374452    -0.08500
C1879       C  0.45608360  0.02131531  0.57048462     0.61900
H1880       H  0.46749798  0.07192780  0.52852561     0.12500
H1881       H  0.54223389  0.95994391  0.00272815     0.12600
C1882       C  0.55128370  0.01006170  0.96013175     0.62100
F1883       F  0.44249404  0.05658460  0.57340803    -0.23100
F1884       F  0.47511680  0.01341292  0.59600209    -0.20400
F1885       F  0.42667652  0.99818628  0.56775194    -0.20100
F1886       F  0.58139509  0.03239259  0.96102848    -0.20100
F1887       F  0.52998286  0.01828295  0.93581862    -0.20500
F1888       F  0.56373871  0.97448199  0.95655423    -0.23100
C1889       C  0.50484470  0.80172682  0.64970337    -0.06000
C1890       C  0.50535508  0.79399862  0.61938582     0.00000
C1891       C  0.51232869  0.75732321  0.61029795    -0.08600
C1892       C  0.51229627  0.72895702  0.63142734    -0.06000
C1893       C  0.50786598  0.73644344  0.66156737    -0.00100
C1894       C  0.50757205  0.77363861  0.67090391    -0.08500
C1895       C  0.50521106  0.78393287  0.70313918     0.61900
H1896       H  0.49941445  0.82958776  0.65687486     0.12500
H1897       H  0.51238842  0.70064541  0.62413390     0.12600
C1898       C  0.51520657  0.74744147  0.57801710     0.62100
F1899       F  0.52231780  0.81695536  0.70834480    -0.23100
F1900       F  0.52235573  0.75796543  0.72043402    -0.20400
F1901       F  0.46912457  0.78701423  0.71118899    -0.20100
F1902       F  0.53444424  0.77400343  0.56330646    -0.20100
F1903       F  0.48076786  0.74455512  0.56590670    -0.20500
F1904       F  0.53337223  0.71446515  0.57420487    -0.23100
C1905       C  0.38985270  0.75102909  0.51505024    -0.06000
C1906       C  0.42381727  0.76809777  0.51122626     0.00000
C1907       C  0.44213634  0.75892555  0.98783783    -0.08600
C1908       C  0.43252119  0.72609165  0.97347741    -0.06000
C1909       C  0.40692011  0.70236998  0.98537761    -0.00100
C1910       C  0.38026555  0.71872937  0.50000888    -0.08500
C1911       C  0.34384644  0.70089957  0.50612479     0.61900
H1912       H  0.37090006  0.76257205  0.53074420     0.12500
H1913       H  0.44585739  0.71796060  0.95324225     0.12600
C1914       C  0.46959141  0.78379254  0.97349636     0.62100
F1915       F  0.32362804  0.72057301  0.52650074    -0.23100
F1916       F  0.34940428  0.66609564  0.51712346    -0.20400
F1917       F  0.32361130  0.69879964  0.48040887    -0.20100
F1918       F  0.50152766  0.78387634  0.98972036    -0.20100
F1919       F  0.45560700  0.81888276  0.97186217    -0.20500
F1920       F  0.47778202  0.77247377  0.94511747    -0.23100
C1921       C  0.38729155  0.77090008  0.76038605    -0.06000
C1922       C  0.42148096  0.75492945  0.76677083     0.00000
C1923       C  0.44238298  0.76952253  0.79049227    -0.08600
C1924       C  0.43006585  0.80170037  0.80455136    -0.06000
C1925       C  0.39716664  0.81870751  0.79664752    -0.00100
C1926       C  0.37453477  0.80230243  0.77512335    -0.08500
C1927       C  0.33789301  0.81879413  0.76671500     0.61900
H1928       H  0.37081102  0.75932276  0.74288892     0.12500
H1929       H  0.44673918  0.81467544  0.82133773     0.12600
C1930       C  0.47727894  0.75164347  0.80132677     0.62100
F1931       F  0.32063911  0.79886048  0.74472653    -0.23100
F1932       F  0.34250674  0.85408959  0.75666009    -0.20400
F1933       F  0.31541016  0.81934257  0.79100502    -0.20100
F1934       F  0.50453349  0.75643309  0.78095671    -0.20100
F1935       F  0.47169573  0.71473834  0.80568943    -0.20500
F1936       F  0.48890455  0.76653981  0.82786631    -0.23100
C1937       C  0.38009342  0.95594887  0.69566968    -0.06000
C1938       C  0.40528458  0.94093414  0.71592374     0.00000
C1939       C  0.43321777  0.91713668  0.70527442    -0.08600
C1940       C  0.43278394  0.90737175  0.67530321    -0.06000
C1941       C  0.40689050  0.92166043  0.65573593    -0.00100
C1942       C  0.38058319  0.94697901  0.66568390    -0.08500
C1943       C  0.35258716  0.96374841  0.64490363     0.61900
H1944       H  0.35957097  0.97501116  0.70340528     0.12500
H1945       H  0.45303163  0.88854779  0.66663998     0.12600
C1946       C  0.46360218  0.90205597  0.72468263     0.62100
F1947       F  0.32659467  0.98404580  0.65984927    -0.23100
F1948       F  0.33486768  0.93642150  0.62930706    -0.20400
F1949       F  0.36966866  0.98681327  0.62543783    -0.20100
F1950       F  0.48867270  0.88196885  0.70864232    -0.20100
F1951       F  0.44937171  0.87928440  0.74581109    -0.20500
F1952       F  0.48228182  0.93048656  0.73803194    -0.23100
C1953       C  0.44723537  0.90774781  0.91368392    -0.06000
C1954       C  0.41078903  0.91713379  0.90802790     0.00000
C1955       C  0.38748330  0.92595256  0.93201724    -0.08600
C1956       C  0.40217216  0.92570275  0.96057296    -0.06000
C1957       C  0.43857830  0.91624100  0.96601758    -0.00100
C1958       C  0.46184351  0.90765374  0.94217007    -0.08500
C1959       C  0.50215577  0.89886728  0.94489674     0.61900
H1960       H  0.46492434  0.90061025  0.89547186     0.12500
H1961       H  0.38469769  0.93122993  0.97923444     0.12600
C1962       C  0.34731398  0.93508770  0.92811395     0.62100
F1963       F  0.52125601  0.92009986  0.92527683    -0.23100
F1964       F  0.50788932  0.86239697  0.93785603    -0.20400
F1965       F  0.51625876  0.90572561  0.97258331    -0.20100
F1966       F  0.32887889  0.90449538  0.91812582    -0.20100
F1967       F  0.34315913  0.96307579  0.90813254    -0.20500
F1968       F  0.33131091  0.94633572  0.95421978    -0.23100
C1969       C  0.20897950  0.94164019  0.72886154    -0.06000
C1970       C  0.19718107  0.90523023  0.73004658     0.00000
C1971       C  0.21941227  0.87849001  0.74356234    -0.08600
C1972       C  0.25102203  0.89005700  0.75815891    -0.06000
C1973       C  0.26103667  0.92723936  0.75990224    -0.00100
C1974       C  0.24084985  0.95332264  0.74322170    -0.08500
C1975       C  0.25181908  0.99324422  0.74061057     0.61900
H1976       H  0.19183885  0.96137465  0.71758821     0.12500
H1977       H  0.26731035  0.86984057  0.76955753     0.12600
C1978       C  0.20888941  0.83836322  0.74432547     0.62100
F1979       F  0.24852753  0.01071540  0.76758692    -0.23100
F1980       F  0.23012314  0.01194435  0.72063295    -0.20400
F1981       F  0.28731603  0.99541070  0.73088959    -0.20100
F1982       F  0.17603429  0.83469805  0.75857907    -0.20100
F1983       F  0.23444941  0.81723533  0.75906910    -0.20500
F1984       F  0.20597131  0.82475156  0.71592812    -0.23100
C1985       C  0.07614494  0.80832818  0.48020987    -0.06000
C1986       C  0.11447660  0.81564480  0.98261772     0.00000
C1987       C  0.14185141  0.79269628  0.99449057    -0.08600
C1988       C  0.13101252  0.76135753  0.00963851    -0.06000
C1989       C  0.09123970  0.75559319  0.51022441    -0.00100
C1990       C  0.06472489  0.77619675  0.49392883    -0.08500
C1991       C  0.02404195  0.76877149  0.49052235     0.61900
H1992       H  0.05589912  0.82587785  0.46989439     0.12500
H1993       H  0.15185902  0.74509347  0.02027960     0.12600
C1994       C  0.18216917  0.80125633  0.99214154     0.62100
F1995       F  0.00500419  0.79257891  0.50860733    -0.23100
F1996       F  0.01350541  0.73358425  0.49632414    -0.20400
F1997       F  0.01352115  0.77535514  0.46167448    -0.20100
F1998       F  0.18964154  0.83438281  0.00557976    -0.20100
F1999       F  0.19189078  0.80261108  0.96281987    -0.20500
F2000       F  0.20378064  0.77493126  0.00551006    -0.23100
C2001       C  0.25421985  0.02401476  0.91500495    -0.06000
C2002       C  0.21999680  0.00985259  0.90665361     0.00000
C2003       C  0.21397549  0.00251279  0.87631427    -0.08600
C2004       C  0.24354389  0.00316342  0.85667078    -0.06000
C2005       C  0.27908499  0.01226413  0.86573037    -0.00100
C2006       C  0.28360363  0.02639165  0.89481593    -0.08500
C2007       C  0.31827424  0.04449743  0.90548628     0.61900
H2008       H  0.25893488  0.03085620  0.93796934     0.12500
H2009       H  0.23930554  0.99339646  0.83429517     0.12600
C2010       C  0.17727263  0.99129886  0.86396448     0.62100
F2011       F  0.31079017  0.08078530  0.91205531    -0.23100
F2012       F  0.34548763  0.04348905  0.88467202    -0.20400
F2013       F  0.33088796  0.02770564  0.93077343    -0.20100
F2014       F  0.14958396  0.99576703  0.88415616    -0.20100
F2015       F  0.17869174  0.95501486  0.85514080    -0.20500
F2016       F  0.16893371  0.01268926  0.83979988    -0.23100
C2017       C  0.26758720  0.88995705  0.01330360    -0.06000
C2018       C  0.25097784  0.92736443  0.50959424     0.00000
C2019       C  0.26767710  0.95186826  0.53012559    -0.08600
C2020       C  0.29847836  0.93975388  0.54582021    -0.06000
C2021       C  0.31359437  0.90483393  0.54152604    -0.00100
C2022       C  0.29661911  0.87995899  0.52198658    -0.08500
C2023       C  0.31524914  0.84122343  0.02338918     0.61900
H2024       H  0.25457289  0.87024855  0.99888916     0.12500
H2025       H  0.31234293  0.95823386  0.56083549     0.12600
C2026       C  0.25431604  0.99087943  0.53539512     0.62100
F2027       F  0.29419908  0.82048000  0.00426117    -0.23100
F2028       F  0.31729467  0.82287173  0.04986860    -0.20400
F2029       F  0.34733949  0.84562498  0.50479589    -0.20100
F2030       F  0.21833845  0.99072913  0.54404636    -0.20100
F2031       F  0.25794832  0.01099909  0.50991817    -0.20500
F2032       F  0.27399908  0.00851392  0.55733438    -0.23100
C2033       C  0.12711943  0.90405389  0.60530036    -0.06000
C2034       C  0.10113221  0.92147784  0.62295191     0.00000
C2035       C  0.07917774  0.95006853  0.61122076    -0.08600
C2036       C  0.08448271  0.96033200  0.58178510    -0.06000
C2037       C  0.11078970  0.94294609  0.56439674    -0.00100
C2038       C  0.13223099  0.91421625  0.57606739    -0.08500
C2039       C  0.15945730  0.89354097  0.55731750     0.61900
H2040       H  0.14352210  0.88228860  0.61469241     0.12500
H2041       H  0.06800577  0.98176458  0.57198807     0.12600
C2042       C  0.04927824  0.96841805  0.62904713     0.62100
F2043       F  0.17488604  0.86414622  0.57198169    -0.23100
F2044       F  0.18700616  0.91678448  0.54930183    -0.20400
F2045       F  0.14213823  0.88029308  0.53244720    -0.20100
F2046       F  0.06423882  0.98825610  0.65210924    -0.20100
F2047       F  0.02623294  0.94212314  0.64002169    -0.20500
F2048       F  0.02867038  0.99228163  0.61214908    -0.23100
C2049       C  0.09444227  0.87849814  0.82568919    -0.06000
C2050       C  0.07700157  0.90897672  0.81312832     0.00000
C2051       C  0.07129581  0.94091742  0.83045945    -0.08600
C2052       C  0.08167203  0.94052176  0.86014698    -0.06000
C2053       C  0.09861974  0.90995233  0.87247638    -0.00100
C2054       C  0.10576536  0.87849815  0.85515999    -0.08500
C2055       C  0.12515372  0.84517147  0.86765272     0.61900
H2056       H  0.09990697  0.85478562  0.81192390     0.12500
H2057       H  0.07719320  0.96438305  0.87400438     0.12600
C2058       C  0.05306252  0.97457037  0.81828648     0.62100
F2059       F  0.12441447  0.81579165  0.84821067    -0.23100
F2060       F  0.10863491  0.83445756  0.89343976    -0.20400
F2061       F  0.16112153  0.85357430  0.87340202    -0.20100
F2062       F  0.01933561  0.96469683  0.80782753    -0.20100
F2063       F  0.07395843  0.98875180  0.79602288    -0.20500
F2064       F  0.04832905  0.00176007  0.83936366    -0.23100
C2065       C  0.62911450  0.21275327  0.76338195    -0.06000
C2066       C  0.61922675  0.21434106  0.73356216     0.00000
C2067       C  0.60054728  0.24537512  0.72258397    -0.08600
C2068       C  0.59090210  0.27335608  0.74244395    -0.06000
C2069       C  0.60022017  0.27154545  0.77236567    -0.00100
C2070       C  0.62019865  0.24108509  0.78313733    -0.08500
C2071       C  0.63195003  0.23814436  0.81520030     0.61900
H2072       H  0.64326028  0.18856700  0.77125137     0.12500
H2073       H  0.57670648  0.29753480  0.73460135     0.12600
C2074       C  0.59258652  0.24969010  0.68993424     0.62100
F2075       F  0.64350017  0.20304966  0.82204642    -0.23100
F2076       F  0.60343180  0.24699411  0.83366521    -0.20400
F2077       F  0.66042980  0.26175960  0.82064836    -0.20100
F2078       F  0.56885305  0.22296250  0.68025223    -0.20100
F2079       F  0.62471935  0.24676827  0.67440355    -0.20500
F2080       F  0.57704012  0.28341011  0.68375564    -0.23100
C2081       C  0.46496626  0.01567710  0.75066642    -0.06000
C2082       C  0.46883256  0.01265132  0.78147280     0.00000
C2083       C  0.50491227  0.01007850  0.79309313    -0.08600
C2084       C  0.53508226  0.01021053  0.77366019    -0.06000
C2085       C  0.53115055  0.01384772  0.74296355    -0.00100
C2086       C  0.49514831  0.01577935  0.73141243    -0.08500
C2087       C  0.48745334  0.01884902  0.69872665     0.61900
H2088       H  0.43785926  0.01734913  0.74124256     0.12500
H2089       H  0.56244495  0.01062071  0.78265741     0.12600
C2090       C  0.51196240  0.01017706  0.82607698     0.62100
F2091       F  0.46248628  0.99266861  0.69022475    -0.23100
F2092       F  0.51836858  0.01336702  0.68210092    -0.20400
F2093       F  0.47312509  0.05310736  0.69276558    -0.20100
F2094       F  0.50287813  0.97668483  0.83778402    -0.20100
F2095       F  0.49144245  0.03743834  0.83935964    -0.20500
F2096       F  0.54814910  0.01673492  0.83275288    -0.23100
C2097       C  0.57200103  0.10594773  0.82075478    -0.06000
C2098       C  0.60632779  0.10247135  0.80784716     0.00000
C2099       C  0.63828365  0.10548081  0.82528792    -0.08600
C2100       C  0.63472761  0.11227421  0.85540535    -0.06000
C2101       C  0.60053279  0.11491799  0.86830667    -0.00100
C2102       C  0.56854943  0.11166409  0.85114938    -0.08500
C2103       C  0.53125409  0.11413297  0.86503676     0.61900
H2104       H  0.54800334  0.10313858  0.80695865     0.12500
H2105       H  0.65864988  0.11510512  0.86929578     0.12600
C2106       C  0.67590264  0.10224716  0.81218367     0.62100
F2107       F  0.52832212  0.14607013  0.88127996    -0.23100
F2108       F  0.52639558  0.08467735  0.88348600    -0.20400
F2109       F  0.50374368  0.11401228  0.84407727    -0.20100
F2110       F  0.67807191  0.12486487  0.78813885    -0.20100
F2111       F  0.68242351  0.06641865  0.80370057    -0.20500
F2112       F  0.70286447  0.11243583  0.83197759    -0.23100
C2113       C  0.60272019  0.14156063  0.60158914    -0.06000
C2114       C  0.58806449  0.11419371  0.61929270     0.00000
C2115       C  0.56943998  0.08435683  0.60602590    -0.08600
C2116       C  0.56299861  0.08512577  0.57553968    -0.06000
C2117       C  0.57657168  0.11345667  0.55837511    -0.00100
C2118       C  0.59909095  0.14052848  0.57114599    -0.08500
C2119       C  0.62130658  0.16779722  0.55390848     0.61900
H2120       H  0.61855731  0.16341251  0.61152091     0.12500
H2121       H  0.54650748  0.06425391  0.56504232     0.12600
C2122       C  0.55629326  0.05204546  0.62361759     0.62100
F2123       F  0.65740047  0.16512094  0.56250212    -0.23100
F2124       F  0.60908173  0.20287360  0.55995542    -0.20400
F2125       F  0.61993478  0.16165510  0.52393559    -0.20100
F2126       F  0.52681710  0.06292461  0.64029942    -0.20100
F2127       F  0.58370413  0.03911558  0.64185305    -0.20500
F2128       F  0.54577720  0.02334916  0.60550010    -0.23100
C2129       C  0.76354754  0.06302745  0.77052291    -0.06000
C2130       C  0.74828221  0.09438614  0.75748342     0.00000
C2131       C  0.76406211  0.12930632  0.76348041    -0.08600
C2132       C  0.79458047  0.13093651  0.78206770    -0.06000
C2133       C  0.81088478  0.09941414  0.79355375    -0.00100
C2134       C  0.79497690  0.06474842  0.78815688    -0.08500
C2135       C  0.81063393  0.02969929  0.80104684     0.61900
H2136       H  0.75135087  0.03668115  0.76592919     0.12500
H2137       H  0.80774493  0.15695280  0.78610687     0.12600
C2138       C  0.75031150  0.16494992  0.74997034     0.62100
F2139       F  0.78705546  0.00056213  0.79761404    -0.23100
F2140       F  0.81694156  0.03450710  0.83081829    -0.20400
F2141       F  0.84281757  0.02038802  0.78724616    -0.20100
F2142       F  0.76844860  0.19520807  0.76109011    -0.20100
F2143       F  0.71386130  0.17005939  0.75585056    -0.20500
F2144       F  0.75567055  0.16415990  0.71986722    -0.23100
C2145       C  0.88164260  0.24673652  0.49986811    -0.06000
C2146       C  0.91377420  0.26542867  0.50747317     0.00000
C2147       C  0.93530448  0.25270605  0.53141092    -0.08600
C2148       C  0.92509633  0.22009040  0.54529778    -0.06000
C2149       C  0.89357348  0.20116902  0.53691318    -0.00100
C2150       C  0.87089156  0.21505317  0.51440459    -0.08500
C2151       C  0.83614543  0.19583195  0.50504311     0.61900
H2152       H  0.87304995  0.25345754  0.98720928     0.12500
H2153       H  0.94193028  0.20872441  0.56267785     0.12600
C2154       C  0.96811327  0.27355225  0.54293086     0.62100
F2155       F  0.82979059  0.20694659  0.98515717    -0.23100
F2156       F  0.81220627  0.19554829  0.52838589    -0.20400
F2157       F  0.85573736  0.15504895  0.00093757    -0.20100
F2158       F  0.95837952  0.30949480  0.54878348    -0.20100
F2159       F  0.99567448  0.27255364  0.52240751    -0.20500
F2160       F  0.98162319  0.25871536  0.56877057    -0.23100
C2161       C  0.00985897  0.98202592  0.99171046    -0.06000
C2162       C  0.03633314  0.00994519  0.50069900     0.00000
C2163       C  0.02560321  0.04186751  0.51633185    -0.08600
C2164       C  0.99322078  0.04145227  0.53338453    -0.06000
C2165       C  0.97032562  0.01041546  0.53545139    -0.00100
C2166       C  0.97781387  0.98007592  0.00901396    -0.08500
C2167       C  0.94912984  0.95186706  0.00117112     0.61900
H2168       H  0.01257602  0.96371140  0.97302934     0.12500
H2169       H  0.98522936  0.06611581  0.54504067     0.12600
C2170       C  0.04774076  0.07658258  0.51452975     0.62100
F2171       F  0.96064928  0.92819787  0.97913383    -0.23100
F2172       F  0.91782770  0.96913330  0.99133363    -0.20400
F2173       F  0.94139917  0.93111336  0.02567936    -0.20100
F2174       F  0.05482318  0.08464646  0.48541826    -0.20100
F2175       F  0.08021986  0.07181793  0.52955247    -0.20500
F2176       F  0.02960232  0.10626907  0.52677636    -0.23100
C2177       C  0.74653142  0.01144515  0.65992720    -0.06000
C2178       C  0.71179843  0.02048180  0.64861596     0.00000
C2179       C  0.70776393  0.02334048  0.61760541    -0.08600
C2180       C  0.73879755  0.02016774  0.59947499    -0.06000
C2181       C  0.77417773  0.01601289  0.61110649    -0.00100
C2182       C  0.77791609  0.01019070  0.64178632    -0.08500
C2183       C  0.81537103  0.00619649  0.65549795     0.61900
H2184       H  0.74972651  0.01007016  0.68362033     0.12500
H2185       H  0.73611000  0.02566333  0.57619575     0.12600
C2186       C  0.67123248  0.03286476  0.60381421     0.62100
F2187       F  0.83478227  0.03809733  0.65170804    -0.23100
F2188       F  0.83370481  0.97750972  0.64205782    -0.20400
F2189       F  0.81358412  0.99917485  0.68535829    -0.20100
F2190       F  0.66191367  0.06865184  0.61053265    -0.20100
F2191       F  0.64490511  0.00972570  0.61447328    -0.20500
F2192       F  0.67180233  0.02922047  0.57344700    -0.23100
C2193       C  0.75029829  0.12738518  0.49699733    -0.06000
C2194       C  0.75828249  0.09034684  0.50315768     0.00000
C2195       C  0.72979396  0.07665260  0.01928452    -0.08600
C2196       C  0.69886217  0.08759247  0.00367433    -0.06000
C2197       C  0.69985363  0.11489057  0.98200382    -0.00100
C2198       C  0.71810903  0.13852151  0.48269908    -0.08500
C2199       C  0.71166801  0.17903488  0.47703718     0.61900
H2200       H  0.76910871  0.14809516  0.50427967     0.12500
H2201       H  0.67300968  0.07549732  0.00923105     0.12600
C2202       C  0.72613062  0.04951072  0.04414783     0.62100
F2203       F  0.68126149  0.19110327  0.49208143    -0.23100
F2204       F  0.70689108  0.18462961  0.44716502    -0.20400
F2205       F  0.74071515  0.20025245  0.48619631    -0.20100
F2206       F  0.73878863  0.06519874  0.07002106    -0.20100
F2207       F  0.74596265  0.01827327  0.03766376    -0.20500
F2208       F  0.69040237  0.03929129  0.04854925    -0.23100
C2209       C  0.89123894  0.04716581  0.94355137    -0.06000
C2210       C  0.91496574  0.06496114  0.96345303     0.00000
C2211       C  0.94220292  0.08857748  0.95211898    -0.08600
C2212       C  0.94211461  0.09569648  0.92178261    -0.06000
C2213       C  0.91619100  0.08041514  0.90276022    -0.00100
C2214       C  0.89078364  0.05513134  0.91344815    -0.08500
C2215       C  0.86136938  0.03910688  0.89371501     0.61900
H2216       H  0.87141703  0.02820226  0.95193527     0.12500
H2217       H  0.96149974  0.11464017  0.91263814     0.12600
C2218       C  0.97057581  0.10743786  0.97132987     0.62100
F2219       F  0.83848200  0.01606802  0.90888078    -0.23100
F2220       F  0.87695400  0.01907157  0.87110109    -0.20400
F2221       F  0.84053080  0.06723968  0.88212466    -0.20100
F2222       F  0.99061015  0.08156455  0.98651712    -0.20100
F2223       F  0.95377855  0.13117452  0.99086717    -0.20500
F2224       F  0.99478909  0.12765686  0.95494494    -0.23100
C2225       C  0.90789032  0.13945694  0.69929697    -0.06000
C2226       C  0.92296180  0.10734855  0.71156419     0.00000
C2227       C  0.92598508  0.07542673  0.69371502    -0.08600
C2228       C  0.91584984  0.07734666  0.66407179    -0.06000
C2229       C  0.90208901  0.10956160  0.65203007    -0.00100
C2230       C  0.89697284  0.14095853  0.66966677    -0.08500
C2231       C  0.88086578  0.17579490  0.65690257     0.61900
H2232       H  0.90467663  0.16348783  0.71315774     0.12500
H2233       H  0.91858188  0.05355602  0.64982466     0.12600
C2234       C  0.94184991  0.04020398  0.70507002     0.62100
F2235       F  0.87925755  0.20365215  0.67759758    -0.23100
F2236       F  0.84584392  0.16942060  0.64698078    -0.20400
F2237       F  0.90188287  0.18734902  0.63361701    -0.20100
F2238       F  0.94490426  0.01347562  0.68342514    -0.20100
F2239       F  0.92005209  0.02668425  0.72705478    -0.20500
F2240       F  0.97614289  0.04749881  0.71555380    -0.23100
loop_ 
_geom_bond_atom_site_label_1 
_geom_bond_atom_site_label_2 
_geom_bond_distance 
_geom_bond_site_symmetry_2 
_ccdc_geom_bond_type 
Fe1          O17   2.046       .  S
Fe1           O7   2.014       .  S
Fe1          O14   2.038       .  S
Fe1        O1126   2.088       .  S
Fe1          O12   1.958       .  S
Fe2           O5   2.096       .  S
Fe2           O9   2.029       .  S
Fe2          O13   2.076       .  S
Fe2          O18   2.039       .  S
Fe2          O12   1.941       .  S
Fe3          O21   2.135       .  S
Fe3           O8   2.091       .  S
Fe3          O15   2.152   1_545  S
Fe3        O1124   2.049       .  S
Fe3          O12   1.975       .  S
O4        Fe1123   2.028       .  S
O4           C11   1.268       .  A
O5           C19   1.277       .  A
O6        Fe1121   2.087       .  S
O6           C11   1.280       .  A
O7           C10   1.250       .  A
O8           C20   1.273       .  A
O9           C22   1.266       .  A
C10          O15   1.274   1_545  A
C10        C1045   1.529       .  S
C11        C1090   1.468       .  S
O13          C16   1.269       .  A
O14          C16   1.262       .  A
C16        C1029   1.469       .  S
O17          C22   1.266       .  A
O18          C20   1.261       .  A
C19          O21   1.292       .  A
C19        C1061   1.517       .  S
C20        C1074   1.473       .  S
C22        C1109   1.439       .  S
Fe23         O39   2.084       .  S
Fe23         O29   2.018       .  S
Fe23         O36   2.040       .  S
Fe23         O28   2.103       .  S
Fe23         O34   1.951       .  S
Fe24         O27   2.082       .  S
Fe24         O31   2.014       .  S
Fe24         O35   2.069       .  S
Fe24         O40   2.012       .  S
Fe24         O34   1.930       .  S
Fe25         O43   2.126       .  S
Fe25         O30   2.109       .  S
Fe25         O37   2.154       .  S
Fe25         O26   2.034       .  S
Fe25         O34   1.974       .  S
O26          C33   1.271       .  A
O27          C41   1.276       .  A
O28          C33   1.284       .  A
O29          C32   1.249       .  A
O30          C42   1.275       .  A
O31          C44   1.265       .  A
C32          O37   1.277       .  A
C32         C965   1.530       .  S
C33         C978   1.476       .  S
O35          C38   1.266       .  A
O36          C38   1.260       .  A
C38         C946   1.466       .  S
O39          C44   1.276       .  A
O40          C42   1.253       .  A
C41          O43   1.292       .  A
C41        C1058   1.506       .  S
C42        C1010   1.491       .  S
C44         C994   1.463       .  S
Fe45         O61   2.013       .  S
Fe45         O58   2.063       .  S
Fe45         O50   2.009       .  S
Fe45       O1171   2.089       .  S
Fe45         O56   1.948       .  S
Fe46         O49   2.044       .  S
Fe46         O53   2.089       .  S
Fe46         O57   2.055       .  S
Fe46         O62   2.085       .  S
Fe46         O56   1.941       .  S
Fe47         O65   2.096       .  S
Fe47         O59   2.051   1_556  S
Fe47         O48   2.145   1_565  S
Fe47       O1172   2.120   1_565  S
Fe47       O1176   1.971       .  S
O48        C1175   1.273       .  A
O49        C1183   1.267       .  A
O50          C55   1.249   1_565  A
O51       Fe1165   2.098   1_554  S
O51          C54   1.280       .  A
O52       Fe1167   2.139   1_545  S
O52          C64   1.295   1_545  A
O53          C66   1.269       .  A
C54          O59   1.276       .  A
C54         C917   1.468       .  S
C55        O1168   1.282       .  A
C55        C2162   1.530       .  S
O56       Fe1167   1.974       .  S
O57          C60   1.272       .  A
O58          C60   1.270       .  A
C60         C933   1.465       .  S
O61          C66   1.260       .  A
O62          C64   1.275       .  A
C63          O65   1.270       .  A
C63        O1169   1.261       .  A
C63         C898   1.497   1_556  S
C64         C882   1.517   1_565  S
C66         C866   1.474       .  S
Fe67         O83   2.034       .  S
Fe67         O73   2.085       .  S
Fe67         O80   2.053       .  S
Fe67         O72   2.013       .  S
Fe67         O78   1.954       .  S
Fe68         O71   2.037       .  S
Fe68         O75   2.072       .  S
Fe68         O79   2.047       .  S
Fe68         O84   2.094       .  S
Fe68         O78   1.941       .  S
Fe69         O87   2.093       .  S
Fe69         O74   2.137   1_565  S
Fe69         O81   2.052       .  S
Fe69         O70   2.147   1_565  S
Fe69         O78   1.978       .  S
O70          C77   1.275       .  A
O71          C85   1.261       .  A
O72          C77   1.249   1_565  A
O73          C76   1.277       .  A
O74          C86   1.294   1_545  A
O75          C88   1.267       .  A
C76          O81   1.278       .  A
C76         C818   1.487       .  S
C77         C962   1.531       .  S
O79          C82   1.267       .  A
O80          C82   1.272       .  A
C82         C834   1.478       .  S
O83          C88   1.260       .  A
O84          C86   1.280       .  A
C85          O87   1.269       .  A
C85         C853   1.482       .  S
C86         C885   1.516   1_565  S
C88         C805   1.471       .  S
Fe89        O105   2.057       .  S
Fe89         O95   2.009       .  S
Fe89        O102   2.022       .  S
Fe89       O1214   2.088       .  S
Fe89        O100   1.946       .  S
Fe90         O93   2.078       .  S
Fe90         O97   2.056       .  S
Fe90        O101   2.081       .  S
Fe90        O106   2.045       .  S
Fe90        O100   1.941       .  S
Fe91        O109   2.137       .  S
Fe91         O96   2.098       .  S
Fe91        O103   2.173       .  S
Fe91       O1212   2.038       .  S
Fe91        O100   1.972       .  S
O92       Fe1211   2.029       .  S
O92          C99   1.269       .  A
O93         C107   1.274       .  A
O94       Fe1209   2.090       .  S
O94          C99   1.279       .  A
O95          C98   1.245       .  A
O96         C108   1.274       .  A
O97         C110   1.271       .  A
C98         O103   1.281       .  A
C98         C757   1.539       .  S
C99         C837   1.461       .  S
O101        C104   1.269       .  A
O102        C104   1.260       .  A
C104        C901   1.472       .  S
O105        C110   1.268       .  A
O106        C108   1.266       .  A
C107        O109   1.294       .  A
C107        C770   1.509       .  S
C108        C786   1.488       .  S
C110        C821   1.472       .  S
Fe111       O127   2.046       .  S
Fe111       O117   2.021       .  S
Fe111       O124   2.032       .  S
Fe111       O116   2.072       .  S
Fe111       O122   1.953       .  S
Fe112       O115   2.089       .  S
Fe112       O119   2.046       .  S
Fe112       O123   2.082       .  S
Fe112       O128   2.040       .  S
Fe112       O122   1.944       .  S
Fe113       O131   2.128       .  S
Fe113       O118   2.098       .  S
Fe113       O125   2.146       .  S
Fe113       O114   2.051       .  S
Fe113       O122   1.971       .  S
O114        C121   1.275       .  A
O115        C129   1.276       .  A
O116        C121   1.271       .  A
O117        C120   1.251       .  A
O118        C130   1.272       .  A
O119        C132   1.270       .  A
C120        O125   1.277       .  A
C120        C706   1.521       .  S
C121        C725   1.488       .  S
O123        C126   1.270       .  A
O124        C126   1.263       .  A
C126        C690   1.474       .  S
O127        C132   1.266       .  A
O128        C130   1.265       .  A
C129        O131   1.290       .  A
C129        C773   1.510       .  S
C130        C802   1.493       .  S
C132        C741   1.458       .  S
Fe133       O149   2.029       .  S
Fe133       O146   2.056       .  S
Fe133       O138   2.007       .  S
Fe133      O1259   2.088       .  S
Fe133       O144   1.945       .  S
Fe134       O137   2.049       .  S
Fe134       O141   2.083       .  S
Fe134       O145   2.050       .  S
Fe134       O150   2.077       .  S
Fe134       O144   1.934       .  S
Fe135       O153   2.096       .  S
Fe135       O147   2.028   1_556  S
Fe135       O136   2.156       .  S
Fe135      O1260   2.119       .  S
Fe135      O1264   1.967       .  S
O136       C1263   1.275       .  A
O137       C1271   1.268       .  A
O138        C143   1.245       .  A
O139      Fe1253   2.093   1_554  S
O139        C142   1.281       .  A
O140      Fe1255   2.133       .  S
O140        C152   1.296       .  A
O141        C154   1.268       .  A
C142        O147   1.273       .  A
C142        C997   1.448       .  S
C143       O1256   1.276       .  A
C143       C1874   1.537       .  S
O144      Fe1255   1.974       .  S
O145        C148   1.270       .  A
O146        C148   1.270       .  A
C148        C981   1.454       .  S
O149        C154   1.261       .  A
O150        C152   1.275       .  A
C151        O153   1.269       .  A
C151       O1257   1.262       .  A
C151        C674   1.494   1_556  S
C152        C658   1.506       .  S
C154       C1077   1.491       .  S
Fe155       O171   2.034       .  S
Fe155       O161   2.083       .  S
Fe155       O168   2.051       .  S
Fe155       O160   2.014       .  S
Fe155       O166   1.950       .  S
Fe156       O159   2.051       .  S
Fe156       O163   2.108       .  S
Fe156       O167   2.057       .  S
Fe156       O172   2.106       .  S
Fe156       O166   1.939       .  S
Fe157       O175   2.089       .  S
Fe157       O162   2.112       .  S
Fe157       O169   2.027       .  S
Fe157       O158   2.157       .  S
Fe157       O166   1.971       .  S
O158        C165   1.277       .  A
O159        C173   1.265       .  A
O160        C165   1.247       .  A
O161        C164   1.279       .  A
O162        C174   1.289       .  A
O163        C176   1.276       .  A
C164        O169   1.267       .  A
C164        C629   1.470       .  S
C165        C709   1.527       .  S
O167        C170   1.271       .  A
O168        C170   1.267       .  A
C170        C642   1.468       .  S
O171        C176   1.262       .  A
O172        C174   1.280       .  A
C173        O175   1.273       .  A
C173        C949   1.482       .  S
C174        C661   1.507       .  S
C176        C610   1.487       .  S
Fe177       O193   2.074       .  S
Fe177       O183   2.010       .  S
Fe177       O190   2.040       .  S
Fe177       O182   2.105       .  S
Fe177       O188   1.951       .  S
Fe178       O181   2.086       .  S
Fe178       O185   2.041       .  S
Fe178       O189   2.081       .  S
Fe178       O194   2.035       .  S
Fe178       O188   1.938       .  S
Fe179       O197   2.122       .  S
Fe179       O184   2.099       .  S
Fe179       O191   2.156   1_455  S
Fe179       O180   2.031       .  S
Fe179       O188   1.972       .  S
O180        C187   1.272       .  A
O181        C195   1.275       .  A
O182        C187   1.280       .  A
O183        C186   1.249       .  A
O184        C196   1.273       .  A
O185        C198   1.269       .  A
C186        O191   1.275   1_455  A
C186        C562   1.531       .  S
C187        C930   1.492       .  S
O189        C192   1.269       .  A
O190        C192   1.262       .  A
C192        C850   1.469       .  S
O193        C198   1.273       .  A
O194        C196   1.263       .  A
C195        O197   1.289       .  A
C195        C581   1.505       .  S
C196        C597   1.487       .  S
C198        C914   1.466       .  S
Fe199       O215   2.080       .  S
Fe199       O205   2.022       .  S
Fe199       O212   2.033       .  S
Fe199      O1324   2.104       .  S
Fe199       O210   1.943       .  S
Fe200       O203   2.099       .  S
Fe200       O207   2.035       .  S
Fe200       O211   2.088       .  S
Fe200       O216   2.033       .  S
Fe200       O210   1.937       .  S
Fe201       O219   2.121       .  S
Fe201       O206   2.093       .  S
Fe201       O213   2.149       .  S
Fe201      O1322   2.052       .  S
Fe201       O210   1.966       .  S
O202      Fe1321   2.044       .  S
O202        C209   1.271       .  A
O203        C217   1.278       .  A
O204      Fe1319   2.103       .  S
O204        C209   1.282       .  A
O205        C208   1.251       .  A
O206        C218   1.265       .  A
O207        C220   1.269       .  A
C208        O213   1.277       .  A
C208        C517   1.523       .  S
C209        C530   1.485       .  S
O211        C214   1.269       .  A
O212        C214   1.259       .  A
C214        C501   1.470       .  S
O215        C220   1.275       .  A
O216        C218   1.264       .  A
C217        O219   1.291       .  A
C217        C578   1.509       .  S
C218        C869   1.494       .  S
C220        C546   1.464       .  S
Fe221       O237   2.023       .  S
Fe221       O227   2.085       .  S
Fe221       O234   2.052       .  S
Fe221       O226   2.015       .  S
Fe221       O232   1.948       .  S
Fe222       O225   2.051       .  S
Fe222       O229   2.081       .  S
Fe222       O233   2.044       .  S
Fe222       O238   2.099       .  S
Fe222       O232   1.935       .  S
Fe223       O241   2.101       .  S
Fe223       O228   2.101       .  S
Fe223       O235   2.007       .  S
Fe223       O224   2.152   1_655  S
Fe223       O232   1.965       .  S
O224        C231   1.274   1_455  A
O225        C239   1.263       .  A
O226        C231   1.250       .  A
O227        C230   1.276       .  A
O228        C240   1.285       .  A
O229        C242   1.271       .  A
C230        O235   1.269       .  A
C230       C1106   1.476       .  S
C231        C565   1.530   1_655  S
O233        C236   1.269       .  A
O234        C236   1.271       .  A
C236       C1093   1.465       .  S
O237        C242   1.259       .  A
O238        C240   1.279       .  A
C239        O241   1.276       .  A
C239        C485   1.495       .  S
C240        C466   1.497       .  S
C242       C1013   1.470       .  S
Fe243       O259   2.036       .  S
Fe243       O256   2.068       .  S
Fe243       O248   2.025       .  S
Fe243      O1369   2.098       .  S
Fe243       O254   1.942       .  S
Fe244       O247   2.020       .  S
Fe244       O251   2.076       .  S
Fe244       O255   2.016       .  S
Fe244       O260   2.084       .  S
Fe244       O254   1.933       .  S
Fe245       O263   2.094       .  S
Fe245       O257   2.041   1_556  S
Fe245       O246   2.131   1_655  S
Fe245      O1370   2.115       .  S
Fe245      O1374   1.968       .  S
O246       C1373   1.273   1_455  A
O247       C1381   1.260       .  A
O248        C253   1.251       .  A
O249      Fe1363   2.100   1_554  S
O249        C252   1.281       .  A
O250      Fe1365   2.099       .  S
O250        C262   1.285       .  A
O251        C264   1.266       .  A
C252        O257   1.277       .  A
C252        C434   1.486       .  S
C253       O1366   1.274   1_655  A
C253       C1634   1.518       .  S
O254      Fe1365   1.963       .  S
O255        C258   1.265       .  A
O256        C258   1.274       .  A
C258        C450   1.440       .  S
O259        C264   1.262       .  A
O260        C262   1.276       .  A
C261        O263   1.268       .  A
C261       O1367   1.259       .  A
C261       C1026   1.485   1_556  S
C262        C469   1.489       .  S
C264        C421   1.479       .  S
Fe265       O281   2.027       .  S
Fe265       O271   2.001       .  S
Fe265       O278   2.042       .  S
Fe265       O270   2.046       .  S
Fe265       O276   1.943       .  S
Fe266       O269   2.054       .  S
Fe266       O273   2.118       .  S
Fe266       O277   2.088       .  S
Fe266       O282   2.057       .  S
Fe266       O276   1.932       .  S
Fe267       O285   2.131       .  S
Fe267       O272   2.094       .  S
Fe267       O279   2.139       .  S
Fe267       O268   2.057       .  S
Fe267       O276   1.952       .  S
O268        C275   1.277       .  A
O269        C283   1.271       .  A
O270        C275   1.278       .  A
O271        C274   1.252       .  A
O272        C284   1.271       .  A
O273        C286   1.289       .  A
C274        O279   1.284       .  A
C274        C386   1.507       .  S
C275        C453   1.443       .  S
O277        C280   1.258       .  A
O278        C280   1.246       .  A
C280        C482   1.493       .  S
O281        C286   1.272       .  A
O282        C284   1.269       .  A
C283        O285   1.288       .  A
C283        C402   1.495       .  S
C284        C613   1.507       .  S
C286        C437   1.472       .  S
Fe287       O303   2.055       .  S
Fe287       O293   2.018       .  S
Fe287       O300   2.043       .  S
Fe287      O1412   2.083       .  S
Fe287       O298   1.948       .  S
Fe288       O291   2.091       .  S
Fe288       O295   2.035       .  S
Fe288       O299   2.081       .  S
Fe288       O304   2.017       .  S
Fe288       O298   1.938       .  S
Fe289       O307   2.105       .  S
Fe289       O294   2.091       .  S
Fe289       O301   2.132       .  S
Fe289      O1410   2.031       .  S
Fe289       O298   1.979       .  S
O290      Fe1409   2.030       .  S
O290        C297   1.271       .  A
O291        C305   1.277       .  A
O292      Fe1407   2.094       .  S
O292        C297   1.276       .  A
O293        C296   1.253       .  A
O294        C306   1.271       .  A
O295        C308   1.266       .  A
C296        O301   1.271       .  A
C296        C373   1.522       .  S
C297        C645   1.485       .  S
O299        C302   1.268       .  A
O300        C302   1.263       .  A
C302        C677   1.476       .  S
O303        C308   1.271       .  A
O304        C306   1.259       .  A
C305        O307   1.283       .  A
C305        C405   1.497       .  S
C306        C418   1.473       .  S
C308        C626   1.460       .  S
Fe309       O325   2.041       .  S
Fe309       O315   2.080       .  S
Fe309       O322   2.045       .  S
Fe309       O314   2.011       .  S
Fe309       O320   1.951       .  S
Fe310       O313   2.047       .  S
Fe310       O317   2.071       .  S
Fe310       O321   2.054       .  S
Fe310       O326   2.081       .  S
Fe310       O320   1.937       .  S
Fe311       O329   2.085       .  S
Fe311       O316   2.130       .  S
Fe311       O323   2.057       .  S
Fe311       O312   2.141       .  S
Fe311       O320   1.977       .  S
O312        C319   1.271       .  A
O313        C327   1.265       .  A
O314        C319   1.249       .  A
O315        C318   1.274       .  A
O316        C328   1.292       .  A
O317        C330   1.267       .  A
C318        O323   1.277       .  A
C318        C549   1.490       .  S
C319        C389   1.524       .  S
O321        C324   1.271       .  A
O322        C324   1.266       .  A
C324        C533   1.452       .  S
O325        C330   1.263       .  A
O326        C328   1.275       .  A
C327        O329   1.268       .  A
C327        C693   1.496       .  S
C328        C357   1.505       .  S
C330        C594   1.468       .  S
Fe331       O347   2.040       .  S
Fe331       O344   2.047       .  S
Fe331       O336   2.016       .  S
Fe331      O1457   2.077       .  S
Fe331       O342   1.956       .  S
Fe332       O335   2.046       .  S
Fe332       O339   2.080       .  S
Fe332       O343   2.060       .  S
Fe332       O348   2.080       .  S
Fe332       O342   1.945       .  S
Fe333       O351   2.086       .  S
Fe333       O345   2.047   1_556  S
Fe333       O334   2.147       .  S
Fe333      O1458   2.128       .  S
Fe333      O1462   1.981       .  S
O334       C1461   1.274       .  A
O335       C1469   1.265       .  A
O336        C341   1.252       .  A
O337      Fe1451   2.072   1_554  S
O337        C340   1.270       .  A
O338      Fe1453   2.119       .  S
O338        C350   1.288       .  A
O339        C352   1.269       .  A
C340        O345   1.274       .  A
C340        C738   1.483       .  S
C341       O1454   1.272       .  A
C341       C1490   1.525       .  S
O342      Fe1453   1.983       .  S
O343        C346   1.270       .  A
O344        C346   1.265       .  A
C346        C722   1.461       .  S
O347        C352   1.263       .  A
O348        C350   1.275       .  A
C349        O351   1.270       .  A
C349       O1455   1.265       .  A
C349        C498   1.476   1_556  S
C350        C354   1.501       .  S
C352        C789   1.477       .  S
C353        C354   1.407       .  A
C353        C358   1.420       .  A
C353        H360   1.083       .  S
C354        C355   1.419       .  A
C355        C356   1.416       .  A
C355        C362   1.509       .  S
C356        C357   1.406       .  A
C356        H361   1.085       .  S
C357        C358   1.422       .  A
C358        C359   1.509       .  S
C359        F363   1.385       .  S
C359        F364   1.383       .  S
C359        F365   1.382       .  S
C362        F366   1.383       .  S
C362        F367   1.383       .  S
C362        F368   1.383       .  S
C369        C374   1.418       .  A
C369       C1490   1.417       .  A
C369        H376   1.081       .  S
C370       C1461   1.527       .  S
C370        C371   1.423   1_556  A
C370       C1489   1.419       .  A
C371        C372   1.419       .  A
C371        C378   1.519       .  S
C372        C373   1.416       .  A
C372        H377   1.081       .  S
C373       C1494   1.421       .  A
C374       C1493   1.421       .  A
C374        C375   1.519       .  S
C375        F379   1.385       .  S
C375        F380   1.381       .  S
C375        F381   1.384       .  S
C378        F382   1.383       .  S
C378        F383   1.381       .  S
C378        F384   1.385       .  S
C385        C386   1.415   1_455  A
C385        C390   1.417       .  A
C385        H392   1.083       .  S
C386        C387   1.414       .  A
C387        C388   1.420   1_655  A
C387        C394   1.516       .  S
C388        C389   1.421       .  A
C388        H393   1.081       .  S
C389        C390   1.424       .  A
C390        C391   1.521       .  S
C391        F395   1.385       .  S
C391        F396   1.383       .  S
C391        F397   1.380       .  S
C394        F398   1.381       .  S
C394        F399   1.383       .  S
C394        F400   1.385       .  S
C401        C402   1.404       .  A
C401        C406   1.412       .  A
C401        H408   1.083       .  S
C402        C403   1.421       .  A
C403        C404   1.418       .  A
C403        C410   1.512       .  S
C404        C405   1.404       .  A
C404        H409   1.080       .  S
C405        C406   1.419       .  A
C406        C407   1.512       .  S
C407        F411   1.383       .  S
C407        F412   1.382       .  S
C407        F413   1.383       .  S
C410        F414   1.383       .  S
C410        F415   1.381       .  S
C410        F416   1.384       .  S
C417        C418   1.405       .  A
C417        C422   1.396       .  A
C417        H424   1.083       .  S
C418        C419   1.418   1_554  A
C419       C1540   1.405       .  A
C419        C426   1.517       .  S
C420        C421   1.403       .  A
C420       C1539   1.406       .  A
C420        H425   1.084       .  S
C421       C1542   1.415       .  A
C422       C1541   1.411   1_554  A
C422        C423   1.521       .  S
C423        F427   1.385       .  S
C423        F428   1.383       .  S
C423       F1549   1.382       .  S
C426        F430   1.382       .  S
C426       F1551   1.381       .  S
C426       F1552   1.385       .  S
F429       C1543   1.383       .  S
F431       C1546   1.382       .  S
F432       C1546   1.385       .  S
C433        C434   1.406       .  A
C433        C438   1.399       .  A
C433        H440   1.082       .  S
C434        C435   1.421       .  A
C435        C436   1.408       .  A
C435        C442   1.516       .  S
C436        C437   1.401       .  A
C436        H441   1.083       .  S
C437        C438   1.414       .  A
C438        C439   1.519       .  S
C439        F443   1.385   1_655  S
C439        F444   1.380       .  S
C439        F445   1.383       .  S
C442        F446   1.380       .  S
C442        F447   1.384       .  S
C442        F448   1.381       .  S
C449        C450   1.401       .  A
C449        C454   1.398       .  A
C449        H456   1.084       .  S
C450        C451   1.406       .  A
C451        C452   1.393       .  A
C451        C458   1.519       .  S
C452        C453   1.401       .  A
C452        H457   1.084       .  S
C453        C454   1.409       .  A
C454        C455   1.518       .  S
C455        F459   1.383       .  S
C455        F460   1.383       .  S
C455        F461   1.384   1_655  S
C458        F462   1.383       .  S
C458        F463   1.383       .  S
C458        F464   1.384       .  S
C465        C466   1.403   1_455  A
C465        C470   1.413       .  A
C465        H472   1.082       .  S
C466        C467   1.421       .  A
C467        C468   1.413       .  A
C467        C474   1.512       .  S
C468        C469   1.403       .  A
C468        H473   1.086       .  S
C469        C470   1.420   1_655  A
C470        C471   1.514       .  S
C471        F475   1.384       .  S
C471        F476   1.383   1_455  S
C471        F477   1.382       .  S
C474        F478   1.382       .  S
C474        F479   1.383   1_655  S
C474        F480   1.384   1_655  S
C481        C482   1.405       .  A
C481        C486   1.411       .  A
C481        H488   1.082       .  S
C482        C483   1.424       .  A
C483        C484   1.408       .  A
C483        C490   1.520       .  S
C484        C485   1.404       .  A
C484        H489   1.082       .  S
C485        C486   1.424       .  A
C486        C487   1.521       .  S
C487        F491   1.385       .  S
C487        F492   1.384       .  S
C487        F493   1.383       .  S
C490        F494   1.383       .  S
C490        F495   1.384       .  S
C490        F496   1.383       .  S
C497        C502   1.399       .  A
C497       C1618   1.402       .  A
C497        H504   1.083       .  S
C498        C499   1.420       .  A
C498       C1617   1.399   1_554  A
C499        C500   1.410       .  A
C499        C506   1.515       .  S
C500        C501   1.401       .  A
C500        H505   1.083       .  S
C501       C1622   1.413       .  A
C502       C1621   1.412       .  A
C502        C503   1.512       .  S
C503        F507   1.384       .  S
C503        F508   1.380       .  S
C503        F509   1.380       .  S
C506        F510   1.381       .  S
C506        F511   1.383       .  S
C506        F512   1.385       .  S
C513        C514   1.408   1_554  A
C513        C518   1.418       .  A
C513        H520   1.082       .  S
C514       C1373   1.524   1_455  S
C514       C1635   1.430   1_455  A
C515        C516   1.422       .  A
C515       C1634   1.429       .  A
C515        C522   1.520       .  S
C516       C1637   1.410   1_655  A
C516        H521   1.082       .  S
C517        C518   1.429       .  A
C517       C1636   1.410   1_454  A
C518        C519   1.520       .  S
C519        F523   1.384       .  S
C519        F524   1.383       .  S
C519        F525   1.383       .  S
C522        F526   1.385       .  S
C522        F527   1.382       .  S
C522        F528   1.382   1_655  S
C529        C530   1.408       .  A
C529        C534   1.406       .  A
C529        H536   1.083       .  S
C530        C531   1.428       .  A
C531        C532   1.395       .  A
C531        C538   1.514       .  S
C532        C533   1.387       .  A
C532        H537   1.084       .  S
C533        C534   1.410       .  A
C534        C535   1.518       .  S
C535        F539   1.384       .  S
C535        F540   1.380       .  S
C535        F541   1.382       .  S
C538        F542   1.376       .  S
C538        F543   1.379       .  S
C538        F544   1.385       .  S
C545        C546   1.398       .  A
C545        C550   1.402       .  A
C545        H552   1.084       .  S
C546        C547   1.407       .  A
C547        C548   1.402       .  A
C547        C554   1.518       .  S
C548        C549   1.412       .  A
C548        H553   1.081       .  S
C549        C550   1.428       .  A
C550        C551   1.524       .  S
C551        F555   1.384       .  S
C551        F556   1.382       .  S
C551        F557   1.382       .  S
C554        F558   1.383       .  S
C554        F559   1.382       .  S
C554        F560   1.384       .  S
C561        C562   1.420   1_545  A
C561        C566   1.424       .  A
C561        H568   1.081       .  S
C562        C563   1.423   1_455  A
C563        C564   1.423   1_565  A
C563        C570   1.518       .  S
C564        C565   1.420   1_655  A
C564        H569   1.081       .  S
C565        C566   1.425       .  A
C566        C567   1.520       .  S
C567        F571   1.385       .  S
C567        F572   1.383       .  S
C567        F573   1.382       .  S
C570        F574   1.381       .  S
C570        F575   1.384       .  S
C570        F576   1.385       .  S
C577        C578   1.406       .  A
C577        C582   1.420       .  A
C577        H584   1.084       .  S
C578        C579   1.425       .  A
C579        C580   1.418       .  A
C579        C586   1.510       .  S
C580        C581   1.403       .  A
C580        H585   1.084       .  S
C581        C582   1.424       .  A
C582        C583   1.514       .  S
C583        F587   1.382       .  S
C583        F588   1.382       .  S
C583        F589   1.384   1_455  S
C586        F590   1.381   1_455  S
C586        F591   1.383       .  S
C586        F592   1.384   1_455  S
C593        C594   1.399       .  A
C593        C598   1.405       .  A
C593        H600   1.084       .  S
C594        C595   1.412       .  A
C595        C596   1.404       .  A
C595        C602   1.519       .  S
C596        C597   1.409       .  A
C596        H601   1.083       .  S
C597        C598   1.421       .  A
C598        C599   1.515       .  S
C599        F603   1.385       .  S
C599        F604   1.381       .  S
C599        F605   1.381       .  S
C602        F606   1.383       .  S
C602        F607   1.382       .  S
C602        F608   1.385       .  S
C609        C610   1.405       .  A
C609        C614   1.414       .  A
C609        H616   1.083       .  S
C610        C611   1.412       .  A
C611        C612   1.407       .  A
C611        C618   1.517       .  S
C612        C613   1.413       .  A
C612        H617   1.082       .  S
C613        C614   1.427       .  A
C614        C615   1.520       .  S
C615        F619   1.385       .  S
C615        F620   1.381       .  S
C615        F621   1.382       .  S
C618        F622   1.383       .  S
C618        F623   1.383       .  S
C618        F624   1.384       .  S
C625        C626   1.398       .  A
C625        C630   1.398       .  A
C625        H632   1.083       .  S
C626        C627   1.414       .  A
C627        C628   1.395       .  A
C627        C634   1.519       .  S
C628        C629   1.403       .  A
C628        H633   1.083       .  S
C629        C630   1.423       .  A
C630        C631   1.523       .  S
C631        F635   1.385       .  S
C631        F636   1.382       .  S
C631        F637   1.381       .  S
C634        F638   1.384       .  S
C634        F639   1.383       .  S
C634        F640   1.384       .  S
C641        C642   1.401       .  A
C641        C646   1.403       .  A
C641        H648   1.084       .  S
C642        C643   1.412       .  A
C643        C644   1.399       .  A
C643        C650   1.522       .  S
C644        C645   1.410       .  A
C644        H649   1.082       .  S
C645        C646   1.422       .  A
C646        C647   1.519       .  S
C647        F651   1.385       .  S
C647        F652   1.383       .  S
C647        F653   1.380       .  S
C650        F654   1.382       .  S
C650        F655   1.384       .  S
C650        F656   1.385       .  S
C657        C658   1.406       .  A
C657        C662   1.419       .  A
C657        H664   1.083       .  S
C658        C659   1.425       .  A
C659        C660   1.418       .  A
C659        C666   1.509       .  S
C660        C661   1.404       .  A
C660        H665   1.084       .  S
C661        C662   1.425       .  A
C662        C663   1.513       .  S
C663        F667   1.381       .  S
C663        F668   1.382       .  S
C663        F669   1.384       .  S
C666        F670   1.381       .  S
C666        F671   1.384       .  S
C666        F672   1.383       .  S
C673       C1794   1.408       .  A
C673       C1798   1.402       .  A
C673        H680   1.082       .  S
C674        C675   1.423       .  A
C674       C1793   1.409       .  A
C675        C676   1.410       .  A
C675        C682   1.519       .  S
C676        C677   1.401       .  A
C676        H681   1.083       .  S
C677        C678   1.414       .  A
C678       C1793   1.405       .  A
C678       C1799   1.521       .  S
C679       C1798   1.518       .  S
C679        F683   1.385       .  S
C679        F684   1.382       .  S
C679        F685   1.383       .  S
C682        F686   1.385       .  S
C682        F687   1.382       .  S
C682        F688   1.381       .  S
C689        C690   1.401       .  A
C689        C694   1.407       .  A
C689        H696   1.083       .  S
C690        C691   1.412       .  A
C691        C692   1.403       .  A
C691        C698   1.519       .  S
C692        C693   1.411       .  A
C692        H697   1.081       .  S
C693        C694   1.427       .  A
C694        C695   1.521       .  S
C695        F699   1.386       .  S
C695        F700   1.382       .  S
C695        F701   1.383       .  S
C698        F702   1.383       .  S
C698        F703   1.382       .  S
C698        F704   1.385       .  S
C705        C706   1.408       .  A
C705        C710   1.422       .  A
C705        H712   1.082       .  S
C706        C707   1.427       .  A
C707        C708   1.421       .  A
C707        C714   1.520       .  S
C708        C709   1.410       .  A
C708        H713   1.080       .  S
C709        C710   1.433       .  A
C710        C711   1.521       .  S
C711        F715   1.385       .  S
C711        F716   1.383       .  S
C711        F717   1.383       .  S
C714        F718   1.384       .  S
C714        F719   1.382       .  S
C714        F720   1.383       .  S
C721        C722   1.396       .  A
C721        C726   1.404       .  A
C721        H728   1.080       .  S
C722        C723   1.407       .  A
C723        C724   1.398       .  A
C723        C730   1.520       .  S
C724        C725   1.409       .  A
C724        H729   1.079       .  S
C725        C726   1.429       .  A
C726        C727   1.524       .  S
C727        F731   1.383       .  S
C727        F732   1.380       .  S
C727        F733   1.383       .  S
C730        F734   1.382       .  S
C730        F735   1.384       .  S
C730        F736   1.384       .  S
C737        C738   1.409       .  A
C737        C742   1.399       .  A
C737        H744   1.082       .  S
C738        C739   1.427       .  A
C739        C740   1.398       .  A
C739        C746   1.521       .  S
C740        C741   1.395       .  A
C740        H745   1.084       .  S
C741        C742   1.410       .  A
C742        C743   1.521       .  S
C743        F747   1.384       .  S
C743        F748   1.384       .  S
C743        F749   1.382       .  S
C746        F750   1.380       .  S
C746        F751   1.380       .  S
C746        F752   1.384       .  S
C753        C754   1.405   1_554  A
C753        C758   1.425       .  A
C753        H760   1.081       .  S
C754       C1263   1.537       .  S
C754       C1875   1.438       .  A
C755        C756   1.420   1_545  A
C755       C1874   1.439       .  A
C755        C762   1.522       .  S
C756       C1877   1.402       .  A
C756        H761   1.080       .  S
C757        C758   1.442   1_565  A
C757       C1876   1.407       .  A
C758        C759   1.526       .  S
C759        F763   1.385       .  S
C759        F764   1.380       .  S
C759        F765   1.380   1_545  S
C762        F766   1.378       .  S
C762        F767   1.383       .  S
C762        F768   1.383   1_545  S
C769        C770   1.407       .  A
C769        C774   1.421       .  A
C769        H776   1.084       .  S
C770        C771   1.424       .  A
C771        C772   1.422       .  A
C771        C778   1.513       .  S
C772        C773   1.407       .  A
C772        H777   1.084       .  S
C773        C774   1.424       .  A
C774        C775   1.514       .  S
C775        F779   1.384       .  S
C775        F780   1.382       .  S
C775        F781   1.383       .  S
C778        F782   1.384       .  S
C778        F783   1.381       .  S
C778        F784   1.384       .  S
C785        C786   1.408       .  A
C785        C790   1.403       .  A
C785        H792   1.083       .  S
C786       C1907   1.423   1_554  A
C787        C788   1.409       .  A
C787       C1906   1.424       .  A
C787        C794   1.516       .  S
C788        C789   1.401       .  A
C788        H793   1.083       .  S
C789       C1910   1.414       .  A
C790       C1909   1.412   1_554  A
C790        C791   1.520       .  S
C791        F795   1.384       .  S
C791        F796   1.383       .  S
C791        F797   1.382       .  S
C794        F798   1.381       .  S
C794        F799   1.382       .  S
C794        F800   1.385       .  S
C801        C802   1.410       .  A
C801        C806   1.404       .  A
C801        H808   1.082       .  S
C802        C803   1.423       .  A
C803        C804   1.406       .  A
C803        C810   1.516       .  S
C804        C805   1.400       .  A
C804        H809   1.084       .  S
C805        C806   1.413       .  A
C806        C807   1.520       .  S
C807        F811   1.385       .  S
C807        F812   1.384       .  S
C807        F813   1.383       .  S
C810        F814   1.382       .  S
C810        F815   1.379       .  S
C810        F816   1.385       .  S
C817        C818   1.408       .  A
C817        C822   1.401       .  A
C817        H824   1.083       .  S
C818        C819   1.425       .  A
C819        C820   1.403       .  A
C819        C826   1.521       .  S
C820        C821   1.401       .  A
C820        H825   1.084       .  S
C821        C822   1.414       .  A
C822        C823   1.520       .  S
C823        F827   1.385   1_565  S
C823        F828   1.383       .  S
C823        F829   1.383       .  S
C826        F830   1.384       .  S
C826        F831   1.381       .  S
C826        F832   1.384       .  S
C833        C834   1.404       .  A
C833        C838   1.397       .  A
C833        H840   1.085       .  S
C834        C835   1.423       .  A
C835        C836   1.399       .  A
C835        C842   1.520       .  S
C836        C837   1.399       .  A
C836        H841   1.084       .  S
C837        C838   1.416       .  A
C838        C839   1.519       .  S
C839        F843   1.384       .  S
C839        F844   1.382       .  S
C839        F845   1.379       .  S
C842        F846   1.383       .  S
C842        F847   1.377       .  S
C842        F848   1.386       .  S
C849        C850   1.402       .  A
C849        C854   1.412       .  A
C849        H856   1.083       .  S
C850        C851   1.412       .  A
C851        C852   1.398       .  A
C851        C858   1.518       .  S
C852        C853   1.404       .  A
C852        H857   1.083       .  S
C853        C854   1.421       .  A
C854        C855   1.518       .  S
C855        F859   1.382   1_565  S
C855        F860   1.385       .  S
C855        F861   1.383       .  S
C858        F862   1.383       .  S
C858        F863   1.384       .  S
C858        F864   1.381       .  S
C865        C870   1.402       .  A
C865       C1986   1.405       .  A
C865        H872   1.085       .  S
C866        C867   1.408       .  A
C866       C1985   1.400       .  A
C867        C868   1.405       .  A
C867        C874   1.521       .  S
C868       C1989   1.419       .  A
C868        H873   1.079       .  S
C869        C870   1.429   1_554  A
C869       C1988   1.415       .  A
C870        C871   1.529       .  S
C871        F875   1.381   1_556  S
C871        F876   1.375       .  S
C871        F877   1.385       .  S
C874        F878   1.380       .  S
C874        F879   1.382       .  S
C874        F880   1.385       .  S
C881        C882   1.413       .  A
C881        C886   1.431       .  A
C881        H888   1.084       .  S
C882        C883   1.417       .  A
C883        C884   1.413       .  A
C883        C890   1.504       .  S
C884        C885   1.406       .  A
C884        H889   1.085   1_545  S
C885        C886   1.428       .  A
C886        C887   1.515       .  S
C887        F891   1.383       .  S
C887        F892   1.382       .  S
C887        F893   1.383       .  S
C890        F894   1.383       .  S
C890        F895   1.383   1_545  S
C890        F896   1.384       .  S
C897       C2018   1.413       .  A
C897       C2022   1.405       .  A
C897        H904   1.081       .  S
C898        C899   1.425       .  A
C898       C2017   1.414       .  A
C899        C900   1.405       .  A
C899        C906   1.522       .  S
C900        C901   1.402       .  A
C900        H905   1.084       .  S
C901        C902   1.411       .  A
C902       C2017   1.404       .  A
C902       C2023   1.521       .  S
C903       C2022   1.520       .  S
C903        F907   1.385       .  S
C903        F908   1.383       .  S
C903       F2029   1.383       .  S
C906        F910   1.382       .  S
C906        F911   1.383   1_565  S
C906        F912   1.385   1_565  S
F909       C2023   1.383       .  S
C913        C914   1.396       .  A
C913        C918   1.394       .  A
C913        H920   1.084       .  S
C914        C915   1.418       .  A
C915        C916   1.410       .  A
C915        C922   1.517       .  S
C916        C917   1.403       .  A
C916        H921   1.084       .  S
C917        C918   1.415       .  A
C918        C919   1.514       .  S
C919        F923   1.385       .  S
C919        F924   1.377       .  S
C919        F925   1.382       .  S
C922        F926   1.382       .  S
C922        F927   1.384       .  S
C922        F928   1.385       .  S
C929        C930   1.415       .  A
C929        C934   1.402       .  A
C929        H936   1.078       .  S
C930        C931   1.421       .  A
C931        C932   1.403       .  A
C931        C938   1.518       .  S
C932        C933   1.397       .  A
C932        H937   1.066       .  S
C933        C934   1.407       .  A
C934        C935   1.520       .  S
C935        F939   1.385       .  S
C935        F940   1.382       .  S
C935        F941   1.383       .  S
C938        F942   1.377       .  S
C938        F943   1.383       .  S
C938        F944   1.382   1_565  S
C945        C946   1.397       .  A
C945        C950   1.402       .  A
C945        H952   1.092       .  S
C946        C947   1.410       .  A
C947        C948   1.405       .  A
C947        C954   1.516       .  S
C948        C949   1.406       .  A
C948        H953   1.098       .  S
C949        C950   1.422       .  A
C950        C951   1.520       .  S
C951        F955   1.385       .  S
C951        F956   1.383       .  S
C951        F957   1.381       .  S
C954        F958   1.383       .  S
C954        F959   1.384       .  S
C954        F960   1.385       .  S
C961        C962   1.409       .  A
C961        C966   1.422       .  A
C961        H968   1.082       .  S
C962        C963   1.433   1_545  A
C963        C964   1.425       .  A
C963        C970   1.520       .  S
C964        C965   1.409   1_565  A
C964        H969   1.082       .  S
C965        C966   1.431       .  A
C966        C967   1.519       .  S
C967        F971   1.384       .  S
C967        F972   1.384   1_545  S
C967        F973   1.381       .  S
C970        F974   1.383       .  S
C970        F975   1.381   1_565  S
C970        F976   1.385       .  S
C977        C978   1.406       .  A
C977        C982   1.405       .  A
C977        H984   1.083       .  S
C978        C979   1.426       .  A
C979        C980   1.395       .  A
C979        C986   1.519       .  S
C980        C981   1.390       .  A
C980        H985   1.084       .  S
C981        C982   1.410       .  A
C982        C983   1.516       .  S
C983        F987   1.383       .  S
C983        F988   1.383       .  S
C983        F989   1.384       .  S
C986        F990   1.380       .  S
C986        F991   1.382       .  S
C986        F992   1.385       .  S
C993        C994   1.403       .  A
C993        C998   1.391       .  A
C993       H1000   1.085       .  S
C994        C995   1.416       .  A
C995        C996   1.403       .  A
C995       C1002   1.514       .  S
C996        C997   1.398       .  A
C996       H1001   1.083       .  S
C997        C998   1.412       .  A
C998        C999   1.521       .  S
C999       F1003   1.384       .  S
C999       F1004   1.382       .  S
C999       F1005   1.380       .  S
C1002      F1006   1.381       .  S
C1002      F1007   1.383       .  S
C1002      F1008   1.382       .  S
C1009      C1010   1.406       .  A
C1009      C1014   1.401       .  A
C1009      H1016   1.084       .  S
C1010      C1011   1.434       .  A
C1011      C1012   1.403       .  A
C1011      C1018   1.526       .  S
C1012      C1013   1.396       .  A
C1012      H1017   1.083       .  S
C1013      C1014   1.416       .  A
C1014      C1015   1.518       .  S
C1015      F1019   1.384       .  S
C1015      F1020   1.383       .  S
C1015      F1021   1.383       .  S
C1018      F1022   1.385       .  S
C1018      F1023   1.382       .  S
C1018      F1024   1.384       .  S
C1025      C1026   1.408       .  A
C1025      C1030   1.399       .  A
C1025      H2152   1.082   1_554  S
C1026      C1027   1.421       .  A
C1027      C1028   1.410       .  A
C1027      C1034   1.519       .  S
C1028      C1029   1.403       .  A
C1028      H1033   1.083       .  S
C1029      C1030   1.411       .  A
C1030      C1031   1.519       .  S
C1031      F1036   1.383       .  S
C1031      F2155   1.384   1_554  S
C1031      F2157   1.383       .  S
H1032      C2145   1.082       .  S
C1034      F1038   1.384       .  S
C1034      F1039   1.382   1_655  S
C1034      F1040   1.385       .  S
F1035      C2151   1.384       .  S
F1037      C2151   1.383       .  S
C1041      C1046   1.424   1_455  A
C1041      C2162   1.421   1_565  A
C1041      H1048   1.082       .  S
C1042      C1175   1.530       .  S
C1042      C1043   1.423   1_556  A
C1042      C2161   1.419   1_545  A
C1043      C1044   1.421       .  A
C1043      C1050   1.519       .  S
C1044      C1045   1.418   1_455  A
C1044      H1049   1.081       .  S
C1045      C2166   1.422   1_545  A
C1046      C2165   1.417   1_565  A
C1046      C1047   1.517       .  S
C1047      F1051   1.385       .  S
C1047      F1052   1.381       .  S
C1047      F1053   1.384       .  S
C1050      F1054   1.384       .  S
C1050      F1055   1.382       .  S
C1050      F1056   1.385       .  S
C1057      C1058   1.405       .  A
C1057      C1062   1.412       .  A
C1057      H1064   1.085       .  S
C1058      C1059   1.418       .  A
C1059      C1060   1.430       .  A
C1059      C1066   1.513   1_545  S
C1060      C1061   1.414       .  A
C1060      H1065   1.077   1_545  S
C1061      C1062   1.419       .  A
C1062      C1063   1.508       .  S
C1063      F1067   1.383       .  S
C1063      F1068   1.380       .  S
C1063      F1069   1.383       .  S
C1066      F1070   1.383   1_565  S
C1066      F1071   1.383       .  S
C1066      F1072   1.384       .  S
C1073      C1074   1.406   1_556  A
C1073      C1078   1.411       .  A
C1073      H1080   1.083       .  S
C1074      C2195   1.410       .  A
C1075      C1076   1.408       .  A
C1075      C2194   1.422       .  A
C1075      C1082   1.521       .  S
C1076      C1077   1.409       .  A
C1076      H1081   1.082       .  S
C1077      C2198   1.416       .  A
C1078      C2197   1.418       .  A
C1078      C1079   1.517       .  S
C1079      F1083   1.383       .  S
C1079      F1084   1.383       .  S
C1079      F1085   1.384       .  S
C1082      F1086   1.381       .  S
C1082      F1087   1.381       .  S
C1082      F1088   1.385       .  S
C1089      C1090   1.401       .  A
C1089      C1094   1.395       .  A
C1089      H1096   1.083       .  S
C1090      C1091   1.420       .  A
C1091      C1092   1.399       .  A
C1091      C1098   1.519       .  S
C1092      C1093   1.400       .  A
C1092      H1097   1.083       .  S
C1093      C1094   1.415       .  A
C1094      C1095   1.516       .  S
C1095      F1099   1.385       .  S
C1095      F1100   1.383       .  S
C1095      F1101   1.384       .  S
C1098      F1102   1.380       .  S
C1098      F1103   1.383   1_545  S
C1098      F1104   1.385   1_545  S
C1105      C1106   1.414       .  A
C1105      C1110   1.390       .  A
C1105      H1112   1.082       .  S
C1106      C1107   1.422       .  A
C1107      C1108   1.397       .  A
C1107      C1114   1.518       .  S
C1108      C1109   1.393       .  A
C1108      H1113   1.079       .  S
C1109      C1110   1.399       .  A
C1110      C1111   1.519       .  S
C1111      F1115   1.382       .  S
C1111      F1116   1.383       .  S
C1111      F1117   1.383       .  S
C1114      F1118   1.384       .  S
C1114      F1119   1.370       .  S
C1114      F1120   1.384       .  S
Fe1121     O1137   2.060       .  S
Fe1121     O1127   2.013       .  S
Fe1121     O1134   2.030       .  S
Fe1121     O1132   1.947       .  S
Fe1122     O1125   2.075       .  S
Fe1122     O1129   2.038       .  S
Fe1122     O1133   2.070       .  S
Fe1122     O1138   2.038       .  S
Fe1122     O1132   1.935       .  S
Fe1123     O1141   2.123       .  S
Fe1123     O1128   2.107       .  S
Fe1123     O1135   2.164       .  S
Fe1123     O1132   1.973       .  S
O1124      C1131   1.276   1_554  A
O1125      C1139   1.274       .  A
O1126      C1131   1.275   1_554  A
O1127      C1130   1.250       .  A
O1128      C1140   1.274       .  A
O1129      C1142   1.267       .  A
C1130      O1135   1.278       .  A
C1130      C2165   1.530       .  S
C1131      C2210   1.491       .  S
O1133      C1136   1.266       .  A
O1134      C1136   1.259       .  A
C1136      C2149   1.467       .  S
O1137      C1142   1.273       .  A
O1138      C1140   1.265       .  A
C1139      O1141   1.291       .  A
C1139      C2181   1.502       .  S
C1140      C2194   1.500       .  S
C1142      C2229   1.453       .  S
Fe1143     O1159   2.041       .  S
Fe1143     O1149   2.013       .  S
Fe1143     O1156   2.049       .  S
Fe1143     O1148   2.061       .  S
Fe1143     O1154   1.955       .  S
Fe1144     O1147   2.057       .  S
Fe1144     O1151   2.069       .  S
Fe1144     O1155   2.066       .  S
Fe1144     O1160   2.025       .  S
Fe1144     O1154   1.942       .  S
Fe1145     O1163   2.143       .  S
Fe1145     O1150   2.075       .  S
Fe1145     O1157   2.131       .  S
Fe1145     O1146   2.075       .  S
Fe1145     O1154   1.950       .  S
O1146      C1153   1.281       .  A
O1147      C1161   1.273       .  A
O1148      C1153   1.283       .  A
O1149      C1152   1.251       .  A
O1150      C1162   1.269       .  A
O1151      C1164   1.279       .  A
C1152      O1157   1.282       .  A
C1152      C2085   1.501       .  S
C1153      C2098   1.461       .  S
O1155      C1158   1.256       .  A
O1156      C1158   1.251       .  A
C1158      C2066   1.468       .  S
O1159      C1164   1.274       .  A
O1160      C1162   1.256       .  A
C1161      O1163   1.293       .  A
C1161      C2178   1.502       .  S
C1162      C2130   1.485       .  S
C1164      C2114   1.467       .  S
Fe1165     O1181   2.022       .  S
Fe1165     O1178   2.067       .  S
Fe1165     O1170   2.015       .  S
Fe1165     O1176   1.950       .  S
Fe1166     O1169   2.033       .  S
Fe1166     O1173   2.078       .  S
Fe1166     O1177   2.034       .  S
Fe1166     O1182   2.094       .  S
Fe1166     O1176   1.944       .  S
Fe1167     O1185   2.095       .  S
Fe1167     O1179   2.049       .  S
Fe1167     O1168   2.178   1_565  S
O1170      C1175   1.252   1_565  A
O1171      C1174   1.275       .  A
O1172      C1184   1.291   1_545  A
O1173      C1186   1.268       .  A
C1174      O1179   1.270       .  A
C1174      C2037   1.463       .  S
O1177      C1180   1.265       .  A
O1178      C1180   1.273       .  A
C1180      C2053   1.457       .  S
O1181      C1186   1.261       .  A
O1182      C1184   1.279       .  A
C1183      O1185   1.272       .  A
C1183      C2018   1.497       .  S
C1184      C2002   1.505   1_565  S
C1186      C1986   1.480       .  S
Fe1187     O1203   2.036       .  S
Fe1187     O1193   2.090       .  S
Fe1187     O1200   2.066       .  S
Fe1187     O1192   2.022       .  S
Fe1187     O1198   1.945       .  S
Fe1188     O1191   2.036       .  S
Fe1188     O1195   2.072       .  S
Fe1188     O1199   2.044       .  S
Fe1188     O1204   2.086       .  S
Fe1188     O1198   1.936       .  S
Fe1189     O1207   2.081       .  S
Fe1189     O1194   2.123   1_565  S
Fe1189     O1201   2.039       .  S
Fe1189     O1190   2.137   1_565  S
Fe1189     O1198   1.976       .  S
O1190      C1197   1.273       .  A
O1191      C1205   1.262       .  A
O1192      C1197   1.252   1_565  A
O1193      C1196   1.279       .  A
O1194      C1206   1.292   1_545  A
O1195      C1208   1.266       .  A
C1196      O1201   1.275       .  A
C1196      C1938   1.489       .  S
C1197      C2082   1.521       .  S
O1199      C1202   1.268       .  A
O1200      C1202   1.276       .  A
C1202      C1954   1.481       .  S
O1203      C1208   1.260       .  A
O1204      C1206   1.278       .  A
C1205      O1207   1.266       .  A
C1205      C1973   1.491       .  S
C1206      C2005   1.507   1_565  S
C1208      C1925   1.475       .  S
Fe1209     O1225   2.059       .  S
Fe1209     O1215   2.009       .  S
Fe1209     O1222   2.020       .  S
Fe1209     O1220   1.940       .  S
Fe1210     O1213   2.088       .  S
Fe1210     O1217   2.049       .  S
Fe1210     O1221   2.090       .  S
Fe1210     O1226   2.039       .  S
Fe1210     O1220   1.934       .  S
Fe1211     O1229   2.112       .  S
Fe1211     O1216   2.111       .  S
Fe1211     O1223   2.163       .  S
Fe1211     O1220   1.964       .  S
O1212      C1219   1.270   1_554  A
O1213      C1227   1.276       .  A
O1214      C1219   1.278   1_554  A
O1215      C1218   1.245       .  A
O1216      C1228   1.276       .  A
O1217      C1230   1.269       .  A
C1218      O1223   1.280       .  A
C1218      C1877   1.533       .  S
C1219      C1957   1.466       .  S
O1221      C1224   1.271       .  A
O1222      C1224   1.259       .  A
C1224      C2021   1.474       .  S
O1225      C1230   1.270       .  A
O1226      C1228   1.265       .  A
C1227      O1229   1.288       .  A
C1227      C1890   1.498       .  S
C1228      C1906   1.499       .  S
C1230      C1941   1.464       .  S
Fe1231     O1247   2.051       .  S
Fe1231     O1237   2.016       .  S
Fe1231     O1244   2.031       .  S
Fe1231     O1236   2.076       .  S
Fe1231     O1242   1.945       .  S
Fe1232     O1235   2.086       .  S
Fe1232     O1239   2.045       .  S
Fe1232     O1243   2.079       .  S
Fe1232     O1248   2.033       .  S
Fe1232     O1242   1.935       .  S
Fe1233     O1251   2.111       .  S
Fe1233     O1238   2.107       .  S
Fe1233     O1245   2.151       .  S
Fe1233     O1234   2.031       .  S
Fe1233     O1242   1.970       .  S
O1234      C1241   1.271       .  A
O1235      C1249   1.276       .  A
O1236      C1241   1.272       .  A
O1237      C1240   1.249       .  A
O1238      C1250   1.275       .  A
O1239      C1252   1.270       .  A
C1240      O1245   1.277       .  A
C1240      C1826   1.524       .  S
C1241      C1845   1.478       .  S
O1243      C1246   1.269       .  A
O1244      C1246   1.261       .  A
C1246      C1810   1.470       .  S
O1247      C1252   1.267       .  A
O1248      C1250   1.263       .  A
C1249      O1251   1.286       .  A
C1249      C1893   1.498       .  S
C1250      C1922   1.494       .  S
C1252      C1861   1.460       .  S
Fe1253     O1269   2.018       .  S
Fe1253     O1266   2.049       .  S
Fe1253     O1258   2.010       .  S
Fe1253     O1264   1.948       .  S
Fe1254     O1257   2.046       .  S
Fe1254     O1261   2.079       .  S
Fe1254     O1265   2.052       .  S
Fe1254     O1270   2.093       .  S
Fe1254     O1264   1.937       .  S
Fe1255     O1273   2.085       .  S
Fe1255     O1267   2.035       .  S
Fe1255     O1256   2.163       .  S
O1258      C1263   1.246       .  A
O1259      C1262   1.278       .  A
O1260      C1272   1.294       .  A
O1261      C1274   1.267       .  A
C1262      O1267   1.273       .  A
C1262      C2117   1.453       .  S
O1265      C1268   1.270       .  A
O1266      C1268   1.268       .  A
C1268      C2101   1.452       .  S
O1269      C1274   1.260       .  A
O1270      C1272   1.281       .  A
C1271      O1273   1.268       .  A
C1271      C1794   1.492       .  S
C1272      C1778   1.502       .  S
C1274      C2197   1.484       .  S
Fe1275     O1291   2.031       .  S
Fe1275     O1281   2.093       .  S
Fe1275     O1288   2.061       .  S
Fe1275     O1280   2.014       .  S
Fe1275     O1286   1.945       .  S
Fe1276     O1279   2.028       .  S
Fe1276     O1283   2.081       .  S
Fe1276     O1287   2.034       .  S
Fe1276     O1292   2.083       .  S
Fe1276     O1286   1.938       .  S
Fe1277     O1295   2.098       .  S
Fe1277     O1282   2.118       .  S
Fe1277     O1289   2.031       .  S
Fe1277     O1278   2.167       .  S
Fe1277     O1286   1.968       .  S
O1278      C1285   1.280       .  A
O1279      C1293   1.262       .  A
O1280      C1285   1.246       .  A
O1281      C1284   1.280       .  A
O1282      C1294   1.289       .  A
O1283      C1296   1.270       .  A
C1284      O1289   1.266       .  A
C1284      C1749   1.475       .  S
C1285      C1829   1.528       .  S
O1287      C1290   1.269       .  A
O1288      C1290   1.268       .  A
C1290      C1762   1.468       .  S
O1291      C1296   1.262       .  A
O1292      C1294   1.274       .  A
C1293      O1295   1.276       .  A
C1293      C2069   1.470       .  S
C1294      C1781   1.502       .  S
C1296      C1730   1.468       .  S
Fe1297     O1313   2.059       .  S
Fe1297     O1303   2.010       .  S
Fe1297     O1310   2.023       .  S
Fe1297     O1302   2.103       .  S
Fe1297     O1308   1.939       .  S
Fe1298     O1301   2.088       .  S
Fe1298     O1305   2.053       .  S
Fe1298     O1309   2.086       .  S
Fe1298     O1314   2.043       .  S
Fe1298     O1308   1.928       .  S
Fe1299     O1317   2.107       .  S
Fe1299     O1304   2.086       .  S
Fe1299     O1311   2.137   1_455  S
Fe1299     O1300   2.039       .  S
Fe1299     O1308   1.968       .  S
O1300      C1307   1.271       .  A
O1301      C1315   1.276       .  A
O1302      C1307   1.278       .  A
O1303      C1306   1.246       .  A
O1304      C1316   1.270       .  A
O1305      C1318   1.272       .  A
C1306      O1311   1.272   1_455  A
C1306      C1682   1.505       .  S
C1307      C2050   1.478       .  S
O1309      C1312   1.271       .  A
O1310      C1312   1.262       .  A
C1312      C1970   1.473       .  S
O1313      C1318   1.268       .  A
O1314      C1316   1.267       .  A
C1315      O1317   1.286       .  A
C1315      C1701   1.497       .  S
C1316      C1717   1.486       .  S
C1318      C2034   1.469       .  S
Fe1319     O1335   2.083       .  S
Fe1319     O1325   2.025       .  S
Fe1319     O1332   2.035       .  S
Fe1319     O1330   1.946       .  S
Fe1320     O1323   2.091       .  S
Fe1320     O1327   2.052       .  S
Fe1320     O1331   2.081       .  S
Fe1320     O1336   2.045       .  S
Fe1320     O1330   1.940       .  S
Fe1321     O1339   2.112       .  S
Fe1321     O1326   2.089       .  S
Fe1321     O1333   2.139       .  S
Fe1321     O1330   1.971       .  S
O1322      C1329   1.274   1_554  A
O1323      C1337   1.277       .  A
O1324      C1329   1.284   1_554  A
O1325      C1328   1.252       .  A
O1326      C1338   1.265       .  A
O1327      C1340   1.271       .  A
C1328      O1333   1.275       .  A
C1328      C1637   1.517       .  S
C1329      C1650   1.484       .  S
O1331      C1334   1.268       .  A
O1332      C1334   1.261       .  A
C1334      C1621   1.467       .  S
O1335      C1340   1.275       .  A
O1336      C1338   1.265       .  A
C1337      O1339   1.289       .  A
C1337      C1698   1.500       .  S
C1338      C1989   1.501       .  S
C1340      C1666   1.468       .  S
Fe1341     O1357   2.017       .  S
Fe1341     O1347   2.115       .  S
Fe1341     O1354   2.072       .  S
Fe1341     O1346   2.009       .  S
Fe1341     O1352   1.935       .  S
Fe1342     O1345   2.038       .  S
Fe1342     O1349   2.083       .  S
Fe1342     O1353   2.046       .  S
Fe1342     O1358   2.090       .  S
Fe1342     O1352   1.928       .  S
Fe1343     O1361   2.071       .  S
Fe1343     O1348   2.108       .  S
Fe1343     O1355   2.036       .  S
Fe1343     O1344   2.144   1_655  S
Fe1343     O1352   1.973       .  S
O1344      C1351   1.271   1_455  A
O1345      C1359   1.262       .  A
O1346      C1351   1.246       .  A
O1347      C1350   1.281       .  A
O1348      C1360   1.288       .  A
O1349      C1362   1.272       .  A
C1350      O1355   1.270       .  A
C1350      C2226   1.486       .  S
C1351      C1685   1.508   1_655  S
O1353      C1356   1.270       .  A
O1354      C1356   1.272       .  A
C1356      C2213   1.466       .  S
O1357      C1362   1.257       .  A
O1358      C1360   1.277       .  A
C1359      O1361   1.271       .  A
C1359      C1605   1.469       .  S
C1360      C1586   1.498       .  S
C1362      C2133   1.472       .  S
Fe1363     O1379   2.026       .  S
Fe1363     O1376   2.071       .  S
Fe1363     O1368   2.018       .  S
Fe1363     O1374   1.954       .  S
Fe1364     O1367   2.029       .  S
Fe1364     O1371   2.059       .  S
Fe1364     O1375   2.028       .  S
Fe1364     O1380   2.087       .  S
Fe1364     O1374   1.939       .  S
Fe1365     O1383   2.098       .  S
Fe1365     O1377   2.018       .  S
Fe1365     O1366   2.133   1_655  S
O1368      C1373   1.251       .  A
O1369      C1372   1.282       .  A
O1370      C1382   1.289       .  A
O1371      C1384   1.264       .  A
C1372      O1377   1.271       .  A
C1372      C1554   1.462       .  S
O1375      C1378   1.266       .  A
O1376      C1378   1.274       .  A
C1378      C1570   1.448       .  S
O1379      C1384   1.258       .  A
O1380      C1382   1.277       .  A
C1381      O1383   1.271       .  A
C1381      C2146   1.482       .  S
C1382      C1589   1.499       .  S
C1384      C1541   1.457       .  S
Fe1385     O1401   2.026       .  S
Fe1385     O1391   2.016       .  S
Fe1385     O1398   2.045       .  S
Fe1385     O1390   2.055       .  S
Fe1385     O1396   1.943       .  S
Fe1386     O1389   2.048       .  S
Fe1386     O1393   2.092       .  S
Fe1386     O1397   2.057       .  S
Fe1386     O1402   2.044       .  S
Fe1386     O1396   1.936       .  S
Fe1387     O1405   2.146       .  S
Fe1387     O1392   2.068       .  S
Fe1387     O1399   2.130       .  S
Fe1387     O1388   2.066       .  S
Fe1387     O1396   1.944       .  S
O1388      C1395   1.278       .  A
O1389      C1403   1.270       .  A
O1390      C1395   1.280       .  A
O1391      C1394   1.255       .  A
O1392      C1404   1.266       .  A
O1393      C1406   1.285       .  A
C1394      O1399   1.283       .  A
C1394      C1506   1.511       .  S
C1395      C1573   1.450       .  S
O1397      C1400   1.255       .  A
O1398      C1400   1.248       .  A
C1400      C1602   1.471       .  S
O1401      C1406   1.273       .  A
O1402      C1404   1.267       .  A
C1403      O1405   1.291       .  A
C1403      C1522   1.502       .  S
C1404      C1733   1.492       .  S
C1406      C1557   1.469       .  S
Fe1407     O1423   2.057       .  S
Fe1407     O1413   2.016       .  S
Fe1407     O1420   2.036       .  S
Fe1407     O1418   1.956       .  S
Fe1408     O1411   2.091       .  S
Fe1408     O1415   2.056       .  S
Fe1408     O1419   2.077       .  S
Fe1408     O1424   2.042       .  S
Fe1408     O1418   1.939       .  S
Fe1409     O1427   2.125       .  S
Fe1409     O1414   2.088       .  S
Fe1409     O1421   2.143       .  S
Fe1409     O1418   1.978       .  S
O1410      C1417   1.271   1_554  A
O1411      C1425   1.276       .  A
O1412      C1417   1.274   1_554  A
O1413      C1416   1.250       .  A
O1414      C1426   1.272       .  A
O1415      C1428   1.272       .  A
C1416      O1421   1.273       .  A
C1416      C1493   1.525       .  S
C1417      C1765   1.478       .  S
O1419      C1422   1.267       .  A
O1420      C1422   1.261       .  A
C1422      C1797   1.476       .  S
O1423      C1428   1.271       .  A
O1424      C1426   1.265       .  A
C1425      O1427   1.288       .  A
C1425      C1525   1.510       .  S
C1426      C1538   1.497       .  S
C1428      C1746   1.467       .  S
Fe1429     O1445   2.040       .  S
Fe1429     O1435   2.089       .  S
Fe1429     O1442   2.060       .  S
Fe1429     O1434   2.014       .  S
Fe1429     O1440   1.955       .  S
Fe1430     O1433   2.048       .  S
Fe1430     O1437   2.062       .  S
Fe1430     O1441   2.048       .  S
Fe1430     O1446   2.078       .  S
Fe1430     O1440   1.941       .  S
Fe1431     O1449   2.082       .  S
Fe1431     O1436   2.140       .  S
Fe1431     O1443   2.074       .  S
Fe1431     O1432   2.139       .  S
Fe1431     O1440   1.974       .  S
O1432      C1439   1.272       .  A
O1433      C1447   1.264       .  A
O1434      C1439   1.250       .  A
O1435      C1438   1.277       .  A
O1436      C1448   1.295       .  A
O1437      C1450   1.265       .  A
C1438      O1443   1.280       .  A
C1438      C1669   1.502       .  S
C1439      C1509   1.525       .  S
O1441      C1444   1.269       .  A
O1442      C1444   1.269       .  A
C1444      C1653   1.458       .  S
O1445      C1450   1.262       .  A
O1446      C1448   1.275       .  A
C1447      O1449   1.267       .  A
C1447      C1813   1.493       .  S
C1448      C1477   1.510       .  S
C1450      C1714   1.466       .  S
Fe1451     O1467   2.031       .  S
Fe1451     O1464   2.039       .  S
Fe1451     O1456   2.014       .  S
Fe1451     O1462   1.957       .  S
Fe1452     O1455   2.039       .  S
Fe1452     O1459   2.079       .  S
Fe1452     O1463   2.054       .  S
Fe1452     O1468   2.081       .  S
Fe1452     O1462   1.943       .  S
Fe1453     O1471   2.083       .  S
Fe1453     O1465   2.045       .  S
Fe1453     O1454   2.139       .  S
O1456      C1461   1.251       .  A
O1457      C1460   1.272       .  A
O1458      C1470   1.291       .  A
O1459      C1472   1.268       .  A
C1460      O1465   1.273       .  A
C1460      C1858   1.483       .  S
O1463      C1466   1.270       .  A
O1464      C1466   1.264       .  A
C1466      C1842   1.457       .  S
O1467      C1472   1.261       .  A
O1468      C1470   1.274       .  A
C1469      O1471   1.269       .  A
C1469      C1618   1.479       .  S
C1470      C1474   1.508       .  S
C1472      C1909   1.466       .  S
C1473      C1474   1.408       .  A
C1473      C1478   1.422       .  A
C1473      H1480   1.083       .  S
C1474      C1475   1.420       .  A
C1475      C1476   1.419       .  A
C1475      C1482   1.506       .  S
C1476      C1477   1.406       .  A
C1476      H1481   1.085       .  S
C1477      C1478   1.424       .  A
C1478      C1479   1.513       .  S
C1479      F1483   1.385       .  S
C1479      F1484   1.382       .  S
C1479      F1485   1.382       .  S
C1482      F1486   1.382       .  S
C1482      F1487   1.383       .  S
C1482      F1488   1.384       .  S
C1489      C1494   1.419   1_556  A
C1489      H1496   1.081       .  S
C1490      C1491   1.423       .  A
C1491      C1492   1.420       .  A
C1491      C1498   1.520       .  S
C1492      C1493   1.418       .  A
C1492      H1497   1.081       .  S
C1494      C1495   1.520       .  S
C1495      F1499   1.385   1_554  S
C1495      F1500   1.382   1_554  S
C1495      F1501   1.384       .  S
C1498      F1502   1.383       .  S
C1498      F1503   1.382       .  S
C1498      F1504   1.385       .  S
C1505      C1506   1.415   1_455  A
C1505      C1510   1.418       .  A
C1505      H1512   1.083       .  S
C1506      C1507   1.416       .  A
C1507      C1508   1.421   1_655  A
C1507      C1514   1.516       .  S
C1508      C1509   1.420       .  A
C1508      H1513   1.081       .  S
C1509      C1510   1.424       .  A
C1510      C1511   1.520       .  S
C1511      F1515   1.385       .  S
C1511      F1516   1.384       .  S
C1511      F1517   1.382       .  S
C1514      F1518   1.381       .  S
C1514      F1519   1.383       .  S
C1514      F1520   1.384       .  S
C1521      C1522   1.403       .  A
C1521      C1526   1.416       .  A
C1521      H1528   1.084       .  S
C1522      C1523   1.423       .  A
C1523      C1524   1.422       .  A
C1523      C1530   1.512       .  S
C1524      C1525   1.405       .  A
C1524      H1529   1.080       .  S
C1525      C1526   1.423       .  A
C1526      C1527   1.510       .  S
C1527      F1531   1.385       .  S
C1527      F1532   1.382       .  S
C1527      F1533   1.377       .  S
C1530      F1534   1.383       .  S
C1530      F1535   1.380       .  S
C1530      F1536   1.383       .  S
C1537      C1538   1.411       .  A
C1537      C1542   1.404       .  A
C1537      H1544   1.080       .  S
C1538      C1539   1.424       .  A
C1539      C1546   1.520       .  S
C1540      C1541   1.401       .  A
C1540      H1545   1.084       .  S
C1542      C1543   1.521       .  S
C1543      F1547   1.385       .  S
C1543      F1548   1.380       .  S
C1546      F1550   1.381       .  S
C1553      C1554   1.401       .  A
C1553      C1558   1.399       .  A
C1553      H1560   1.083       .  S
C1554      C1555   1.411       .  A
C1555      C1556   1.397       .  A
C1555      C1562   1.515       .  S
C1556      C1557   1.405       .  A
C1556      H1561   1.083       .  S
C1557      C1558   1.419       .  A
C1558      C1559   1.522       .  S
C1559      F1563   1.385   1_655  S
C1559      F1564   1.384       .  S
C1559      F1565   1.383       .  S
C1562      F1566   1.378       .  S
C1562      F1567   1.382       .  S
C1562      F1568   1.383       .  S
C1569      C1570   1.400       .  A
C1569      C1574   1.399       .  A
C1569      H1576   1.084       .  S
C1570      C1571   1.409       .  A
C1571      C1572   1.397       .  A
C1571      C1578   1.518       .  S
C1572      C1573   1.402       .  A
C1572      H1577   1.084       .  S
C1573      C1574   1.410       .  A
C1574      C1575   1.516       .  S
C1575      F1579   1.381       .  S
C1575      F1580   1.382       .  S
C1575      F1581   1.385   1_655  S
C1578      F1582   1.383       .  S
C1578      F1583   1.382       .  S
C1578      F1584   1.385       .  S
C1585      C1586   1.403       .  A
C1585      C1590   1.414   1_655  A
C1585      H1592   1.085       .  S
C1586      C1587   1.423       .  A
C1587      C1588   1.419       .  A
C1587      C1594   1.514       .  S
C1588      C1589   1.405       .  A
C1588      H1593   1.084       .  S
C1589      C1590   1.423   1_655  A
C1590      C1591   1.513       .  S
C1591      F1595   1.384       .  S
C1591      F1596   1.383   1_455  S
C1591      F1597   1.381       .  S
C1594      F1598   1.381       .  S
C1594      F1599   1.383   1_655  S
C1594      F1600   1.384   1_655  S
C1601      C1602   1.404       .  A
C1601      C1606   1.401       .  A
C1601      H1608   1.083       .  S
C1602      C1603   1.418       .  A
C1603      C1604   1.400       .  A
C1603      C1610   1.522       .  S
C1604      C1605   1.403       .  A
C1604      H1609   1.084       .  S
C1605      C1606   1.416       .  A
C1606      C1607   1.521       .  S
C1607      F1611   1.385       .  S
C1607      F1612   1.384       .  S
C1607      F1613   1.383       .  S
C1610      F1614   1.382       .  S
C1610      F1615   1.384       .  S
C1610      F1616   1.385       .  S
C1617      C1622   1.397   1_556  A
C1617      H1624   1.083       .  S
C1618      C1619   1.422       .  A
C1619      C1620   1.408       .  A
C1619      C1626   1.516       .  S
C1620      C1621   1.399       .  A
C1620      H1625   1.083       .  S
C1622      C1623   1.510   1_554  S
C1623      F1627   1.385       .  S
C1623      F1628   1.381   1_556  S
C1623      F1629   1.381       .  S
C1626      F1630   1.382       .  S
C1626      F1631   1.382       .  S
C1626      F1632   1.385       .  S
C1633      C1634   1.409   1_455  A
C1633      C1638   1.418       .  A
C1633      H1640   1.082       .  S
C1635      C1636   1.424       .  A
C1635      C1642   1.520       .  S
C1636      H1641   1.082       .  S
C1637      C1638   1.426       .  A
C1638      C1639   1.520       .  S
C1639      F1643   1.382       .  S
C1639      F1644   1.384   1_455  S
C1639      F1645   1.382       .  S
C1642      F1646   1.385       .  S
C1642      F1647   1.382       .  S
C1642      F1648   1.381   1_655  S
C1649      C1650   1.408       .  A
C1649      C1654   1.407       .  A
C1649      H1656   1.084       .  S
C1650      C1651   1.427       .  A
C1651      C1652   1.397       .  A
C1651      C1658   1.515       .  S
C1652      C1653   1.390       .  A
C1652      H1657   1.084       .  S
C1653      C1654   1.411       .  A
C1654      C1655   1.517       .  S
C1655      F1659   1.384       .  S
C1655      F1660   1.380       .  S
C1655      F1661   1.382       .  S
C1658      F1662   1.374       .  S
C1658      F1663   1.376       .  S
C1658      F1664   1.386       .  S
C1665      C1666   1.395       .  A
C1665      C1670   1.406       .  A
C1665      H1672   1.084       .  S
C1666      C1667   1.407       .  A
C1667      C1668   1.406       .  A
C1667      C1674   1.518       .  S
C1668      C1669   1.413       .  A
C1668      H1673   1.079       .  S
C1669      C1670   1.433       .  A
C1670      C1671   1.521       .  S
C1671      F1675   1.385       .  S
C1671      F1676   1.383       .  S
C1671      F1677   1.379       .  S
C1674      F1678   1.384       .  S
C1674      F1679   1.383       .  S
C1674      F1680   1.385       .  S
C1681      C1682   1.419   1_545  A
C1681      C1686   1.417       .  A
C1681      H1688   1.082   1_545  S
C1682      C1683   1.414   1_455  A
C1683      C1684   1.415   1_565  A
C1683      C1690   1.518       .  S
C1684      C1685   1.419   1_655  A
C1684      H1689   1.082       .  S
C1685      C1686   1.416       .  A
C1686      C1687   1.517       .  S
C1687      F1691   1.385       .  S
C1687      F1692   1.383       .  S
C1687      F1693   1.383       .  S
C1690      F1694   1.382       .  S
C1690      F1695   1.384       .  S
C1690      F1696   1.384       .  S
C1697      C1698   1.404       .  A
C1697      C1702   1.415       .  A
C1697      H1704   1.085       .  S
C1698      C1699   1.424       .  A
C1699      C1700   1.416       .  A
C1699      C1706   1.511       .  S
C1700      C1701   1.401       .  A
C1700      H1705   1.084       .  S
C1701      C1702   1.423       .  A
C1702      C1703   1.512       .  S
C1703      F1707   1.383       .  S
C1703      F1708   1.381   1_455  S
C1703      F1709   1.384   1_455  S
C1706      F1710   1.383   1_455  S
C1706      F1711   1.380       .  S
C1706      F1712   1.385   1_455  S
C1713      C1714   1.399       .  A
C1713      C1718   1.405       .  A
C1713      H1720   1.084       .  S
C1714      C1715   1.412       .  A
C1715      C1716   1.401       .  A
C1715      C1722   1.521       .  S
C1716      C1717   1.409       .  A
C1716      H1721   1.083       .  S
C1717      C1718   1.425       .  A
C1718      C1719   1.521       .  S
C1719      F1723   1.385       .  S
C1719      F1724   1.381       .  S
C1719      F1725   1.381       .  S
C1722      F1726   1.384       .  S
C1722      F1727   1.382       .  S
C1722      F1728   1.385       .  S
C1729      C1730   1.400       .  A
C1729      C1734   1.408       .  A
C1729      H1736   1.083       .  S
C1730      C1731   1.411       .  A
C1731      C1732   1.400       .  A
C1731      C1738   1.519       .  S
C1732      C1733   1.410       .  A
C1732      H1737   1.082       .  S
C1733      C1734   1.426       .  A
C1734      C1735   1.521       .  S
C1735      F1739   1.385       .  S
C1735      F1740   1.381       .  S
C1735      F1741   1.383       .  S
C1738      F1742   1.383       .  S
C1738      F1743   1.381       .  S
C1738      F1744   1.385       .  S
C1745      C1746   1.400       .  A
C1745      C1750   1.402       .  A
C1745      H1752   1.084       .  S
C1746      C1747   1.413       .  A
C1747      C1748   1.398       .  A
C1747      C1754   1.516       .  S
C1748      C1749   1.402       .  A
C1748      H1753   1.083       .  S
C1749      C1750   1.423       .  A
C1750      C1751   1.522       .  S
C1751      F1755   1.385       .  S
C1751      F1756   1.382       .  S
C1751      F1757   1.380       .  S
C1754      F1758   1.384       .  S
C1754      F1759   1.382       .  S
C1754      F1760   1.384       .  S
C1761      C1762   1.401       .  A
C1761      C1766   1.397       .  A
C1761      H1768   1.083       .  S
C1762      C1763   1.413       .  A
C1763      C1764   1.401       .  A
C1763      C1770   1.519       .  S
C1764      C1765   1.409       .  A
C1764      H1769   1.082       .  S
C1765      C1766   1.419       .  A
C1766      C1767   1.519       .  S
C1767      F1771   1.381       .  S
C1767      F1772   1.382       .  S
C1767      F1773   1.380       .  S
C1770      F1774   1.382       .  S
C1770      F1775   1.383       .  S
C1770      F1776   1.385       .  S
C1777      C1778   1.404       .  A
C1777      C1782   1.417       .  A
C1777      H1784   1.079       .  S
C1778      C1779   1.421       .  A
C1779      C1780   1.417       .  A
C1779      C1786   1.512       .  S
C1780      C1781   1.406       .  A
C1780      H1785   1.084       .  S
C1781      C1782   1.425       .  A
C1782      C1783   1.514       .  S
C1783      F1787   1.382       .  S
C1783      F1788   1.381       .  S
C1783      F1789   1.384       .  S
C1786      F1790   1.381       .  S
C1786      F1791   1.382       .  S
C1786      F1792   1.383       .  S
C1793      H1800   1.082   1_554  S
C1794      C1795   1.427       .  A
C1795      C1796   1.408       .  A
C1795      C1802   1.522       .  S
C1796      C1797   1.400       .  A
C1796      H1801   1.083       .  S
C1797      C1798   1.414       .  A
C1799      F1803   1.385   1_554  S
C1799      F1804   1.382       .  S
C1799      F1805   1.384       .  S
C1802      F1806   1.385       .  S
C1802      F1807   1.382       .  S
C1802      F1808   1.379       .  S
C1809      C1810   1.398       .  A
C1809      C1814   1.406       .  A
C1809      H1816   1.083       .  S
C1810      C1811   1.412       .  A
C1811      C1812   1.404       .  A
C1811      C1818   1.520       .  S
C1812      C1813   1.410       .  A
C1812      H1817   1.082       .  S
C1813      C1814   1.427       .  A
C1814      C1815   1.520       .  S
C1815      F1819   1.385       .  S
C1815      F1820   1.380       .  S
C1815      F1821   1.383       .  S
C1818      F1822   1.382       .  S
C1818      F1823   1.384       .  S
C1818      F1824   1.385       .  S
C1825      C1826   1.407       .  A
C1825      C1830   1.421       .  A
C1825      H1832   1.082       .  S
C1826      C1827   1.430       .  A
C1827      C1828   1.421       .  A
C1827      C1834   1.520       .  S
C1828      C1829   1.408       .  A
C1828      H1833   1.079       .  S
C1829      C1830   1.434       .  A
C1830      C1831   1.521       .  S
C1831      F1835   1.385       .  S
C1831      F1836   1.381       .  S
C1831      F1837   1.383       .  S
C1834      F1838   1.384       .  S
C1834      F1839   1.383       .  S
C1834      F1840   1.384       .  S
C1841      C1842   1.396       .  A
C1841      C1846   1.399       .  A
C1841      H1848   1.080       .  S
C1842      C1843   1.410       .  A
C1843      C1844   1.397       .  A
C1843      C1850   1.521       .  S
C1844      C1845   1.409       .  A
C1844      H1849   1.081       .  S
C1845      C1846   1.423       .  A
C1846      C1847   1.522       .  S
C1847      F1851   1.380       .  S
C1847      F1852   1.380       .  S
C1847      F1853   1.382       .  S
C1850      F1854   1.382       .  S
C1850      F1855   1.383       .  S
C1850      F1856   1.385       .  S
C1857      C1858   1.409       .  A
C1857      C1862   1.399       .  A
C1857      H1864   1.082       .  S
C1858      C1859   1.426       .  A
C1859      C1860   1.400       .  A
C1859      C1866   1.521       .  S
C1860      C1861   1.397       .  A
C1860      H1865   1.084       .  S
C1861      C1862   1.410       .  A
C1862      C1863   1.521       .  S
C1863      F1867   1.384       .  S
C1863      F1868   1.384       .  S
C1863      F1869   1.382       .  S
C1866      F1870   1.381       .  S
C1866      F1871   1.382       .  S
C1866      F1872   1.384       .  S
C1873      C1874   1.409       .  A
C1873      C1878   1.427       .  A
C1873      H1880   1.082       .  S
C1875      C1876   1.426   1_546  A
C1875      C1882   1.522       .  S
C1876      H1881   1.081       .  S
C1877      C1878   1.439   1_565  A
C1878      C1879   1.524       .  S
C1879      F1883   1.385       .  S
C1879      F1884   1.381       .  S
C1879      F1885   1.381   1_545  S
C1882      F1886   1.380       .  S
C1882      F1887   1.383       .  S
C1882      F1888   1.384   1_545  S
C1889      C1890   1.404       .  A
C1889      C1894   1.415       .  A
C1889      H1896   1.084       .  S
C1890      C1891   1.421       .  A
C1891      C1892   1.418       .  A
C1891      C1898   1.512       .  S
C1892      C1893   1.404       .  A
C1892      H1897   1.084       .  S
C1893      C1894   1.421       .  A
C1894      C1895   1.512       .  S
C1895      F1899   1.382       .  S
C1895      F1900   1.383       .  S
C1895      F1901   1.382       .  S
C1898      F1902   1.383       .  S
C1898      F1903   1.382       .  S
C1898      F1904   1.384       .  S
C1905      C1906   1.412       .  A
C1905      C1910   1.405       .  A
C1905      H1912   1.082       .  S
C1907      C1908   1.407       .  A
C1907      C1914   1.516       .  S
C1908      C1909   1.398       .  A
C1908      H1913   1.083       .  S
C1910      C1911   1.521       .  S
C1911      F1915   1.385       .  S
C1911      F1916   1.383       .  S
C1911      F1917   1.383       .  S
C1914      F1918   1.382       .  S
C1914      F1919   1.381       .  S
C1914      F1920   1.385       .  S
C1921      C1922   1.412       .  A
C1921      C1926   1.404       .  A
C1921      H1928   1.082       .  S
C1922      C1923   1.422       .  A
C1923      C1924   1.407       .  A
C1923      C1930   1.517       .  S
C1924      C1925   1.402       .  A
C1924      H1929   1.084       .  S
C1925      C1926   1.412       .  A
C1926      C1927   1.520       .  S
C1927      F1931   1.385       .  S
C1927      F1932   1.383       .  S
C1927      F1933   1.383       .  S
C1930      F1934   1.381       .  S
C1930      F1935   1.381       .  S
C1930      F1936   1.385       .  S
C1937      C1938   1.413       .  A
C1937      C1942   1.399       .  A
C1937      H1944   1.082       .  S
C1938      C1939   1.426       .  A
C1939      C1940   1.405       .  A
C1939      C1946   1.522       .  S
C1940      C1941   1.399       .  A
C1940      H1945   1.084       .  S
C1941      C1942   1.408       .  A
C1942      C1943   1.521       .  S
C1943      F1947   1.384       .  S
C1943      F1948   1.384       .  S
C1943      F1949   1.383       .  S
C1946      F1950   1.382       .  S
C1946      F1951   1.383       .  S
C1946      F1952   1.383       .  S
C1953      C1954   1.404       .  A
C1953      C1958   1.398       .  A
C1953      H1960   1.085       .  S
C1954      C1955   1.424       .  A
C1955      C1956   1.402       .  A
C1955      C1962   1.522       .  S
C1956      C1957   1.401       .  A
C1956      H1961   1.084       .  S
C1957      C1958   1.417       .  A
C1958      C1959   1.519       .  S
C1959      F1963   1.384       .  S
C1959      F1964   1.383       .  S
C1959      F1965   1.379       .  S
C1962      F1966   1.383       .  S
C1962      F1967   1.380       .  S
C1962      F1968   1.386       .  S
C1969      C1970   1.403       .  A
C1969      C1974   1.405       .  A
C1969      H1976   1.084       .  S
C1970      C1971   1.411       .  A
C1971      C1972   1.400       .  A
C1971      C1978   1.519       .  S
C1972      C1973   1.411       .  A
C1972      H1977   1.081       .  S
C1973      C1974   1.424       .  A
C1974      C1975   1.522       .  S
C1975      F1979   1.383   1_565  S
C1975      F1980   1.385   1_565  S
C1975      F1981   1.384       .  S
C1978      F1982   1.382       .  S
C1978      F1983   1.385       .  S
C1978      F1984   1.383       .  S
C1985      C1990   1.401       .  A
C1985      H1992   1.086       .  S
C1986      C1987   1.413       .  A
C1987      C1988   1.402   1_556  A
C1987      C1994   1.522       .  S
C1988      H1993   1.081       .  S
C1989      C1990   1.433       .  A
C1990      C1991   1.529       .  S
C1991      F1995   1.382       .  S
C1991      F1996   1.373       .  S
C1991      F1997   1.386       .  S
C1994      F1998   1.380   1_556  S
C1994      F1999   1.383       .  S
C1994      F2000   1.385   1_556  S
C2001      C2002   1.412       .  A
C2001      C2006   1.425       .  A
C2001      H2008   1.084       .  S
C2002      C2003   1.418       .  A
C2003      C2004   1.412       .  A
C2003      C2010   1.516   1_545  S
C2004      C2005   1.409       .  A
C2004      H2009   1.085   1_545  S
C2005      C2006   1.424       .  A
C2006      C2007   1.515       .  S
C2007      F2011   1.383       .  S
C2007      F2012   1.381       .  S
C2007      F2013   1.382       .  S
C2010      F2014   1.383       .  S
C2010      F2015   1.383       .  S
C2010      F2016   1.384   1_565  S
C2017      H2024   1.081   1_554  S
C2018      C2019   1.427       .  A
C2019      C2020   1.405       .  A
C2019      C2026   1.522       .  S
C2020      C2021   1.401       .  A
C2020      H2025   1.083       .  S
C2021      C2022   1.411       .  A
C2023      F2027   1.385       .  S
C2023      F2028   1.383       .  S
C2026      F2030   1.383       .  S
C2026      F2031   1.383   1_565  S
C2026      F2032   1.385   1_565  S
C2033      C2034   1.398       .  A
C2033      C2038   1.396       .  A
C2033      H2040   1.083       .  S
C2034      C2035   1.421       .  A
C2035      C2036   1.407       .  A
C2035      C2042   1.519       .  S
C2036      C2037   1.399       .  A
C2036      H2041   1.083       .  S
C2037      C2038   1.413       .  A
C2038      C2039   1.513       .  S
C2039      F2043   1.385       .  S
C2039      F2044   1.379       .  S
C2039      F2045   1.379       .  S
C2042      F2046   1.383       .  S
C2042      F2047   1.383       .  S
C2042      F2048   1.385       .  S
C2049      C2050   1.404       .  A
C2049      C2054   1.399       .  A
C2049      H2056   1.083       .  S
C2050      C2051   1.418       .  A
C2051      C2052   1.399       .  A
C2051      C2058   1.504       .  S
C2052      C2053   1.395       .  A
C2052      H2057   1.084       .  S
C2053      C2054   1.412       .  A
C2054      C2055   1.519       .  S
C2055      F2059   1.385       .  S
C2055      F2060   1.383       .  S
C2055      F2061   1.383       .  S
C2058      F2062   1.375       .  S
C2058      F2063   1.380       .  S
C2058      F2064   1.385   1_565  S
C2065      C2066   1.402       .  A
C2065      C2070   1.403       .  A
C2065      H2072   1.084       .  S
C2066      C2067   1.414       .  A
C2067      C2068   1.404       .  A
C2067      C2074   1.519       .  S
C2068      C2069   1.401       .  A
C2068      H2073   1.084       .  S
C2069      C2070   1.418       .  A
C2070      C2071   1.521       .  S
C2071      F2075   1.385       .  S
C2071      F2076   1.382       .  S
C2071      F2077   1.381       .  S
C2074      F2078   1.381       .  S
C2074      F2079   1.383       .  S
C2074      F2080   1.385       .  S
C2081      C2082   1.411       .  A
C2081      C2086   1.418       .  A
C2081      H2088   1.084       .  S
C2082      C2083   1.427       .  A
C2083      C2084   1.422       .  A
C2083      C2090   1.519       .  S
C2084      C2085   1.408       .  A
C2084      H2089   1.084       .  S
C2085      C2086   1.422       .  A
C2086      C2087   1.514       .  S
C2087      F2091   1.381   1_545  S
C2087      F2092   1.382       .  S
C2087      F2093   1.383       .  S
C2090      F2094   1.382   1_545  S
C2090      F2095   1.383       .  S
C2090      F2096   1.385       .  S
C2097      C2098   1.400       .  A
C2097      C2102   1.401       .  A
C2097      H2104   1.084       .  S
C2098      C2099   1.417       .  A
C2099      C2100   1.395       .  A
C2099      C2106   1.513       .  S
C2100      C2101   1.393       .  A
C2100      H2105   1.084       .  S
C2101      C2102   1.412       .  A
C2102      C2103   1.515       .  S
C2103      F2107   1.380       .  S
C2103      F2108   1.382       .  S
C2103      F2109   1.385       .  S
C2106      F2110   1.378       .  S
C2106      F2111   1.382       .  S
C2106      F2112   1.385       .  S
C2113      C2114   1.401       .  A
C2113      C2118   1.389       .  A
C2113      H2120   1.085       .  S
C2114      C2115   1.419       .  A
C2115      C2116   1.404       .  A
C2115      C2122   1.514       .  S
C2116      C2117   1.397       .  A
C2116      H2121   1.083       .  S
C2117      C2118   1.413       .  A
C2118      C2119   1.518       .  S
C2119      F2123   1.384       .  S
C2119      F2124   1.382       .  S
C2119      F2125   1.379       .  S
C2122      F2126   1.381       .  S
C2122      F2127   1.383       .  S
C2122      F2128   1.383       .  S
C2129      C2130   1.406       .  A
C2129      C2134   1.403       .  A
C2129      H2136   1.083       .  S
C2130      C2131   1.429       .  A
C2131      C2132   1.401       .  A
C2131      C2138   1.526       .  S
C2132      C2133   1.398       .  A
C2132      H2137   1.083       .  S
C2133      C2134   1.418       .  A
C2134      C2135   1.520       .  S
C2135      F2139   1.385       .  S
C2135      F2140   1.381       .  S
C2135      F2141   1.382       .  S
C2138      F2142   1.385       .  S
C2138      F2143   1.380       .  S
C2138      F2144   1.383       .  S
C2145      C2146   1.408       .  A
C2145      C2150   1.398       .  A
C2146      C2147   1.420       .  A
C2147      C2148   1.407       .  A
C2147      C2154   1.519       .  S
C2148      C2149   1.403       .  A
C2148      H2153   1.084       .  S
C2149      C2150   1.410       .  A
C2150      C2151   1.519       .  S
C2151      F2156   1.383       .  S
C2154      F2158   1.383       .  S
C2154      F2159   1.382       .  S
C2154      F2160   1.384       .  S
C2161      C2166   1.423   1_456  A
C2161      H2168   1.081       .  S
C2162      C2163   1.416       .  A
C2163      C2164   1.425   1_455  A
C2163      C2170   1.515       .  S
C2164      C2165   1.421       .  A
C2164      H2169   1.082       .  S
C2166      C2167   1.518       .  S
C2167      F2171   1.385   1_554  S
C2167      F2172   1.382   1_554  S
C2167      F2173   1.384       .  S
C2170      F2174   1.384       .  S
C2170      F2175   1.382       .  S
C2170      F2176   1.385       .  S
C2177      C2178   1.412       .  A
C2177      C2182   1.423       .  A
C2177      H2184   1.083       .  S
C2178      C2179   1.420       .  A
C2179      C2180   1.415       .  A
C2179      C2186   1.518       .  S
C2180      C2181   1.409       .  A
C2180      H2185   1.082       .  S
C2181      C2182   1.417       .  A
C2182      C2183   1.514       .  S
C2183      F2187   1.383       .  S
C2183      F2188   1.383   1_545  S
C2183      F2189   1.384   1_545  S
C2186      F2190   1.382       .  S
C2186      F2191   1.382       .  S
C2186      F2192   1.385       .  S
C2193      C2194   1.413       .  A
C2193      C2198   1.406       .  A
C2193      H2200   1.077       .  S
C2195      C2196   1.394       .  A
C2195      C2202   1.516       .  S
C2196      C2197   1.407   1_554  A
C2196      H2201   1.083       .  S
C2198      C2199   1.521       .  S
C2199      F2203   1.382       .  S
C2199      F2204   1.384       .  S
C2199      F2205   1.384       .  S
C2202      F2206   1.383       .  S
C2202      F2207   1.381       .  S
C2202      F2208   1.384       .  S
C2209      C2210   1.410       .  A
C2209      C2214   1.400       .  A
C2209      H2216   1.082       .  S
C2210      C2211   1.427       .  A
C2211      C2212   1.404       .  A
C2211      C2218   1.521       .  S
C2212      C2213   1.399       .  A
C2212      H2217   1.084       .  S
C2213      C2214   1.409       .  A
C2214      C2215   1.518       .  S
C2215      F2219   1.385       .  S
C2215      F2220   1.382       .  S
C2215      F2221   1.383       .  S
C2218      F2222   1.381       .  S
C2218      F2223   1.382       .  S
C2218      F2224   1.385       .  S
C2225      C2226   1.411       .  A
C2225      C2230   1.403       .  A
C2225      H2232   1.083       .  S
C2226      C2227   1.420       .  A
C2227      C2228   1.397       .  A
C2227      C2234   1.503       .  S
C2228      C2229   1.392       .  A
C2228      H2233   1.084       .  S
C2229      C2230   1.406       .  A
C2230      C2231   1.518       .  S
C2231      F2235   1.381       .  S
C2231      F2236   1.382       .  S
C2231      F2237   1.384       .  S
C2234      F2238   1.385       .  S
C2234      F2239   1.381       .  S
C2234      F2240   1.372       .  S
