geometry optimzed in LAMMPS
_audit_creation_date              2020-12-01 
_audit_creation_method            'lammps2cif' 
_symmetry_space_group_name_H-M    'P1' 
_symmetry_Int_Tables_number       1 
_symmetry_cell_setting            triclinic 
loop_ 
_symmetry_equiv_pos_as_xyz 
  x,y,z 
_cell_length_a                    30.24243983 
_cell_length_b                    30.438255892376365 
_cell_length_c                    40.0398215512193 
_cell_angle_alpha                 87.70403390753619 
_cell_angle_beta                  87.26054717829118 
_cell_angle_gamma                 126.50481024151871 
loop_ 
_atom_site_label 
_atom_site_type_symbol 
_atom_site_fract_x 
_atom_site_fract_y 
_atom_site_fract_z 
_atom_site_charge 
C1          C  0.34240676  0.17273925  0.42492021    -0.02300
C2          C  0.34583661  0.17620592  0.38189337    -0.02300
C3          C  0.16673876  0.35053460  0.13324938    -0.02300
C4          C  0.16269296  0.34668518  0.17651913    -0.02300
O5          O  0.40091229  0.39394344  0.49392572    -0.80700
O6          O  0.02143765  0.10668642  0.06716098    -0.65400
O7          O  0.48399316  0.50512724  0.00117606    -1.12000
C8          C  0.07333180  0.45699329  0.07181743     1.06200
O9          O  0.10694787  0.13442285  0.05713959    -0.78600
O10         O  0.13959784  0.08045907  0.02548864    -0.66200
Ni11       Ni  0.41265603  0.46317942  0.48508228     1.34900
C12         C  0.12679027  0.05261982  0.00027101     0.84900
O13         O  0.47004011  0.08849820  0.01145733    -0.79200
O14         O  0.41794414  0.02869343  0.47418626    -0.89400
C15         C  0.07280373  0.14241026  0.06899227     0.84500
O16         O  0.37051935  0.44880505  0.02637378    -0.67600
O17         O  0.09909458  0.00660177  0.07917793    -0.86900
C18         C  0.38191065  0.46773484  0.05489555     0.85300
C19         C  0.43883403  0.07380249  0.48759540     1.06900
H20         H  0.00505917  0.00190871  0.07676970     0.38700
O21         O  0.02767120  0.02152586  0.05602538    -1.09600
O22         O  0.07823837  0.01019139  0.99702982    -0.66200
Ni23       Ni  0.00893773  0.46846270  0.02502188     1.26300
O24         O  0.43033056  0.00653851  0.06164606    -0.66500
O25         O  0.03581347  0.43524794  0.05118466    -0.78800
C26         C  0.43415503  0.38216197  0.48738458     0.84700
O27         O  0.48436631  0.41391974  0.99369325    -0.65900
Ni28       Ni  0.10094539  0.06887059  0.06767184     1.27400
Ni29       Ni  0.49938907  0.05529281  0.03415416     1.26100
H30         H  0.00986692  0.02655538  0.48175103     0.39200
O31         O  0.12079236  0.11432466  0.31407099    -0.80700
O32         O  0.40842531  0.49429437  0.24121791    -0.65400
O33         O  0.00950185  0.03063835  0.30741020    -1.12000
C34         C  0.05866889  0.44294722  0.23620003     1.06200
O35         O  0.38112911  0.41001583  0.25232981    -0.78600
O36         O  0.43471879  0.37743439  0.28293489    -0.66200
Ni37       Ni  0.05021297  0.10021834  0.32485210     1.34900
C38         C  0.46278589  0.39040491  0.30801333     0.84900
O39         O  0.42655353  0.04536925  0.29728922    -0.79200
O40         O  0.48284707  0.09141766  0.33753565    -0.89400
C41         C  0.37288152  0.44307716  0.23963286     0.84500
O42         O  0.06216784  0.14341694  0.28477823    -0.67600
O43         O  0.00876306  0.41730883  0.22897394    -0.86900
C44         C  0.04573516  0.13303199  0.25555705     0.85300
C45         C  0.43904599  0.07295650  0.32284519     1.06900
H46         H  0.01372559  0.01045962  0.23152819     0.38700
O47         O  0.49401965  0.48818358  0.25231529    -1.09600
O48         O  0.00577534  0.43848083  0.31104643    -0.66200
Ni49       Ni  0.04729605  0.00701627  0.28319164     1.26300
O50         O  0.00973574  0.08486128  0.24736386    -0.66500
O51         O  0.08083761  0.48055103  0.25671476    -0.78800
C52         C  0.13374669  0.08221691  0.32056247     0.84700
O53         O  0.10242665  0.03218060  0.31431973    -0.65900
Ni54       Ni  0.44631719  0.41546520  0.24088914     1.27400
Ni55       Ni  0.45982514  0.01605872  0.27435137     1.26100
H56         H  0.48747532  0.00429136  0.32645679     0.39200
C57         C  0.22638295  0.34393155  0.21810148    -0.21100
C58         C  0.22068134  0.37310251  0.19193249    -0.09200
C59         C  0.26824538  0.42897883  0.18420155     0.29700
C60         C  0.31687564  0.45149813  0.19992506    -0.21100
C61         C  0.32087268  0.42041724  0.22427342    -0.09200
C62         C  0.27503049  0.36637408  0.23327809     0.29700
F63         F  0.27616497  0.33501283  0.25784126    -0.19700
H64         H  0.19326941  0.30349509  0.22890392     0.18100
H65         H  0.35179688  0.49369480  0.19280383     0.18100
F66         F  0.26884123  0.46403534  0.16239865    -0.19700
C67         C  0.06265008  0.38437489  0.19742127    -0.21100
C68         C  0.08965215  0.42493487  0.21984118    -0.09200
C69         C  0.14186212  0.44212157  0.22807722     0.29700
C70         C  0.16596155  0.41867249  0.21404635    -0.21100
C71         C  0.13904380  0.37728485  0.19089812    -0.09200
C72         C  0.08520086  0.35973166  0.18451977     0.29700
F73         F  0.05218368  0.31707819  0.16653009    -0.19700
H74         H  0.02178454  0.36896152  0.19065167     0.18100
H75         H  0.20440721  0.43187216  0.22350143     0.18100
F76         F  0.16870597  0.47959329  0.25083998    -0.19700
C77         C  0.05837828  0.21851837  0.24071653    -0.21100
C78         C  0.06713291  0.18065414  0.23142975    -0.09200
C79         C  0.10320027  0.19389597  0.20318472     0.29700
C80         C  0.13141635  0.24565464  0.18522389    -0.21100
C81         C  0.12284455  0.28538382  0.19364111    -0.09200
C82         C  0.08629291  0.26996869  0.22343607     0.29700
F83         F  0.08186692  0.30539344  0.23988772    -0.19700
H84         H  0.03255224  0.20970709  0.26350711     0.18100
H85         H  0.16243061  0.25545342  0.16570412     0.18100
F86         F  0.11457054  0.15872144  0.19451929    -0.19700
C87         C  0.16872270  0.28958765  0.08897949    -0.21100
C88         C  0.14021197  0.29347086  0.11690576    -0.09200
C89         C  0.08427748  0.24574936  0.12463666     0.29700
C90         C  0.06251758  0.19744456  0.10879821    -0.21100
C91         C  0.09414010  0.19439057  0.08387511    -0.09200
C92         C  0.14717714  0.24132682  0.07367473     0.29700
F93         F  0.17806549  0.24152622  0.04779662    -0.19700
H94         H  0.20781653  0.32403635  0.07699897     0.18100
H95         H  0.02065238  0.16190749  0.11646159     0.18100
F96         F  0.04902406  0.24414280  0.14730283    -0.19700
C97         C  0.24734436  0.43106029  0.09133114    -0.21100
C98         C  0.22918453  0.38908660  0.11749319    -0.09200
C99         C  0.26724218  0.37677293  0.12349657     0.29700
C100        C  0.31937891  0.40569287  0.10528070    -0.21100
C101        C  0.33475091  0.44624235  0.07977993    -0.09200
C102        C  0.29857126  0.45888269  0.07333258     0.29700
F103        F  0.31070278  0.49509271  0.04713787    -0.19700
H104        H  0.22126549  0.44062637  0.08154735     0.18100
H105        H  0.34596527  0.39352079  0.10940564     0.18100
F106        F  0.25216844  0.33298130  0.14433231    -0.19700
C107        C  0.09686027  0.34953615  0.09421756    -0.21100
C108        C  0.13722356  0.37544593  0.11811026    -0.09200
C109        C  0.15404719  0.42871520  0.12494787     0.29700
C110        C  0.13011840  0.45161694  0.11154090    -0.21100
C111        C  0.09083483  0.42569293  0.08828155    -0.09200
C112        C  0.07411840  0.37402146  0.07972001     0.29700
F113        F  0.03753992  0.34788867  0.05636887    -0.19700
H114        H  0.08348670  0.31116601  0.08483894     0.18100
H115        H  0.14511279  0.49196592  0.11867891     0.18100
F116        F  0.19599009  0.46143485  0.14353683    -0.19700
C117        C  0.39710436  0.12194888  0.31524778    -0.21100
C118        C  0.40272776  0.08713173  0.33528126    -0.09200
C119        C  0.37721214  0.07026931  0.36797911     0.29700
C120        C  0.35296357  0.09374684  0.38156151    -0.21100
C121        C  0.36069139  0.14007202  0.36472280    -0.09200
C122        C  0.37428310  0.14648751  0.32937843     0.29700
F123        F  0.36979660  0.17984656  0.30871270    -0.19700
H124        H  0.41322629  0.13264845  0.28910804     0.18100
H125        H  0.33183209  0.07776667  0.40633561     0.18100
F126        F  0.37698760  0.03224291  0.38704918    -0.19700
C127        C  0.37297219  0.27500604  0.37423333    -0.21100
C128        C  0.38783519  0.23929476  0.36826775    -0.09200
C129        C  0.43921816  0.26416755  0.34847503     0.29700
C130        C  0.46616905  0.31601357  0.33111837    -0.21100
C131        C  0.44492394  0.34590558  0.33375347    -0.09200
C132        C  0.39974924  0.32638095  0.35667723     0.29700
F133        F  0.37874932  0.35502667  0.36019908    -0.19700
H134        H  0.33704069  0.26153888  0.39016772     0.18100
H135        H  0.50229420  0.33156570  0.31399300     0.18100
F136        F  0.46417779  0.23955641  0.34451955    -0.19700
C137        C  0.19353790  0.07196122  0.35613263    -0.21100
C138        C  0.18719716  0.10473513  0.33461185    -0.09200
C139        C  0.23239560  0.15953943  0.32676581     0.29700
C140        C  0.28196717  0.18148557  0.34117890    -0.21100
C141        C  0.28846658  0.15113881  0.36595453    -0.09200
C142        C  0.24299715  0.09396174  0.37101314     0.29700
F143        F  0.24571848  0.05782827  0.38972558    -0.19700
H144        H  0.15980367  0.02886550  0.36170360     0.18100
H145        H  0.31553181  0.22186762  0.33057089     0.18100
F146        F  0.22981749  0.19166601  0.30363724    -0.19700
C147        C  0.36718554  0.14091625  0.47769412    -0.21100
C148        C  0.37746160  0.15626897  0.44256118    -0.09200
C149        C  0.42492081  0.16257393  0.42755472     0.29700
C150        C  0.44516791  0.13610941  0.44236094    -0.21100
C151        C  0.42518659  0.11020021  0.47466151    -0.09200
C152        C  0.38965839  0.11708393  0.99336007     0.29700
F153        F  0.37496554  0.09899683  0.02630741    -0.19700
H154        H  0.33869618  0.14407204  0.99280965     0.18100
H155        H  0.47643277  0.13562467  0.42837807     0.18100
F156        F  0.45084380  0.19125342  0.39785012    -0.19700
C157        C  0.33677465  0.23444734  0.46718759    -0.23300
C158        C  0.36734726  0.22916850  0.44151580    -0.09200
C159        C  0.42458351  0.27479291  0.43632188     0.29700
C160        C  0.44607129  0.32376356  0.45143402    -0.21100
C161        C  0.41254758  0.32926440  0.47328157    -0.09200
C162        C  0.35780843  0.28364682  0.48148041     0.29700
F163        F  0.32488017  0.28555760  0.00471724    -0.19700
H164        H  0.29679900  0.20034396  0.47830259     0.18100
H165        H  0.48922889  0.35782456  0.44566880     0.18100
F166        F  0.46113900  0.27291497  0.41703045    -0.19700
C167        C  0.25517246  0.08008606  0.45658476    -0.21100
C168        C  0.27869024  0.13144683  0.43829214    -0.09200
C169        C  0.24161031  0.14553439  0.43406411     0.29700
C170        C  0.18982387  0.11635951  0.45203963    -0.21100
C171        C  0.17172110  0.07122309  0.47407617    -0.09200
C172        C  0.20343798  0.05155019  0.47518142     0.29700
F173        F  0.18607855  0.00678381  0.99599805    -0.19700
H174        H  0.27729474  0.06247722  0.45787434     0.18100
H175        H  0.16554692  0.13178869  0.45064251     0.18100
F176        F  0.25722645  0.19155466  0.41585935    -0.19700
C177        C  0.34240680  0.17273922  0.92492023    -0.02300
C178        C  0.34583653  0.17620585  0.88189338    -0.02300
C179        C  0.16673881  0.35053460  0.63324935    -0.02300
C180        C  0.16269292  0.34668520  0.67651911    -0.02300
O181        O  0.40091233  0.39394341  0.99392587    -0.80700
O182        O  0.02143754  0.10668634  0.56716103    -0.65400
O183        O  0.48399318  0.50512722  0.50117602    -1.12000
C184        C  0.07333183  0.45699329  0.57181744     1.06200
O185        O  0.10694778  0.13442281  0.55713967    -0.78600
O186        O  0.13959791  0.08045914  0.52548863    -0.66200
Ni187      Ni  0.41265607  0.46317934  0.98508230     1.34900
C188        C  0.12679033  0.05261979  0.50027104     0.84900
O189        O  0.47004002  0.08849808  0.51145730    -0.79200
O190        O  0.41794416  0.02869350  0.97418634    -0.89400
C191        C  0.07280362  0.14241016  0.56899238     0.84500
O192        O  0.37051936  0.44880521  0.52637373    -0.67600
O193        O  0.09909472  0.00660188  0.57917784    -0.86900
C194        C  0.38191070  0.46773495  0.55489550     0.85300
C195        C  0.43883408  0.07380255  0.98759547     1.06900
H196        H  0.00505921  0.00190872  0.57676972     0.38700
O197        O  0.02767115  0.02152582  0.55602541    -1.09600
O198        O  0.07823842  0.01019129  0.49702992    -0.66200
Ni199      Ni  0.00893776  0.46846266  0.52502186     1.26300
O200        O  0.43033052  0.00653841  0.56164608    -0.66500
O201        O  0.03581365  0.43524799  0.55118456    -0.78800
C202        C  0.43415503  0.38216192  0.98738467     0.84700
O203        O  0.48436628  0.41391972  0.49369322    -0.65900
Ni204      Ni  0.10094536  0.06887058  0.56767182     1.27400
Ni205      Ni  0.49938906  0.05529279  0.53415416     1.26100
H206        H  0.00986611  0.02655486  0.98175149     0.39200
O207        O  0.12079238  0.11432464  0.81407086    -0.80700
O208        O  0.40842523  0.49429439  0.74121800    -0.65400
O209        O  0.00950186  0.03063836  0.80741014    -1.12000
C210        C  0.05866885  0.44294720  0.73620003     1.06200
O211        O  0.38112913  0.41001589  0.75232986    -0.78600
O212        O  0.43471867  0.37743432  0.78293488    -0.66200
Ni213      Ni  0.05021304  0.10021833  0.82485206     1.34900
C214        C  0.46278581  0.39040483  0.80801331     0.84900
O215        O  0.42655357  0.04536918  0.79728931    -0.79200
O216        O  0.48284712  0.09141760  0.83753574    -0.89400
C217        C  0.37288149  0.44307721  0.73963293     0.84500
O218        O  0.06216796  0.14341701  0.78477824    -0.67600
O219        O  0.00876299  0.41730872  0.72897400    -0.86900
C220        C  0.04573520  0.13303205  0.75555708     0.85300
C221        C  0.43904608  0.07295652  0.82284524     1.06900
H222        H  0.01372577  0.01045966  0.73152817     0.38700
O223        O  0.49401968  0.48818353  0.75231534    -1.09600
O224        O  0.00577523  0.43848075  0.81104644    -0.66200
Ni225      Ni  0.04729605  0.00701624  0.78319166     1.26300
O226        O  0.00973581  0.08486132  0.74736388    -0.66500
O227        O  0.08083762  0.48055102  0.75671476    -0.78800
C228        C  0.13374664  0.08221685  0.82056246     0.84700
O229        O  0.10242644  0.03218047  0.81431990    -0.65900
Ni230      Ni  0.44631717  0.41546518  0.74088915     1.27400
Ni231      Ni  0.45982522  0.01605874  0.77435136     1.26100
H232        H  0.48747578  0.00429209  0.82645618     0.39200
C233        C  0.22638296  0.34393160  0.71810145    -0.21100
C234        C  0.22068126  0.37310255  0.69193249    -0.09200
C235        C  0.26824527  0.42897887  0.68420154     0.29700
C236        C  0.31687559  0.45149821  0.69992501    -0.21100
C237        C  0.32087272  0.42041731  0.72427336    -0.09200
C238        C  0.27503053  0.36637412  0.73327801     0.29700
F239        F  0.27616509  0.33501287  0.75784115    -0.19700
H240        H  0.19326947  0.30349511  0.72890385     0.18100
H241        H  0.35179674  0.49369488  0.69280378     0.18100
F242        F  0.26884103  0.46403528  0.66239860    -0.19700
C243        C  0.06264990  0.38437475  0.69742132    -0.21100
C244        C  0.08965204  0.42493483  0.71984118    -0.09200
C245        C  0.14186197  0.44212150  0.72807725     0.29700
C246        C  0.16596141  0.41867248  0.71404637    -0.21100
C247        C  0.13904373  0.37728488  0.69089810    -0.09200
C248        C  0.08520079  0.35973164  0.68451975     0.29700
F249        F  0.05218374  0.31707818  0.66653003    -0.19700
H250        H  0.02178429  0.36896124  0.69065177     0.18100
H251        H  0.20440709  0.43187223  0.72350145     0.18100
F252        F  0.16870597  0.47959330  0.75083995    -0.19700
C253        C  0.05837815  0.21851837  0.74071654    -0.21100
C254        C  0.06713284  0.18065418  0.73142979    -0.09200
C255        C  0.10320013  0.19389597  0.70318474     0.29700
C256        C  0.13141621  0.24565459  0.68522389    -0.21100
C257        C  0.12284451  0.28538383  0.69364112    -0.09200
C258        C  0.08629295  0.26996872  0.72343609     0.29700
F259        F  0.08186701  0.30539350  0.73988770    -0.19700
H260        H  0.03255204  0.20970710  0.76350709     0.18100
H261        H  0.16243039  0.25545323  0.66570408     0.18100
F262        F  0.11457027  0.15872138  0.69451924    -0.19700
C263        C  0.16872268  0.28958758  0.58897948    -0.21100
C264        C  0.14021199  0.29347083  0.61690575    -0.09200
C265        C  0.08427748  0.24574935  0.62463666     0.29700
C266        C  0.06251752  0.19744452  0.60879826    -0.21100
C267        C  0.09414000  0.19439049  0.58387516    -0.09200
C268        C  0.14717707  0.24132674  0.57367473     0.29700
F269        F  0.17806545  0.24152613  0.54779662    -0.19700
H270        H  0.20781650  0.32403626  0.57699893     0.18100
H271        H  0.02065232  0.16190748  0.61646173     0.18100
F272        F  0.04902408  0.24414280  0.64730281    -0.19700
C273        C  0.24734453  0.43106041  0.59133113    -0.21100
C274        C  0.22918462  0.38908661  0.61749313    -0.09200
C275        C  0.26724225  0.37677291  0.62349649     0.29700
C276        C  0.31937901  0.40569287  0.60528064    -0.21100
C277        C  0.33475098  0.44624234  0.57977987    -0.09200
C278        C  0.29857137  0.45888269  0.57333252     0.29700
F279        F  0.31070288  0.49509268  0.54713777    -0.19700
H280        H  0.22126575  0.44062667  0.58154741     0.18100
H281        H  0.34596543  0.39352087  0.60940562     0.18100
F282        F  0.25216850  0.33298126  0.64433224    -0.19700
C283        C  0.09686029  0.34953610  0.59421758    -0.21100
C284        C  0.13722363  0.37544592  0.61811023    -0.09200
C285        C  0.15404723  0.42871518  0.62494784     0.29700
C286        C  0.13011847  0.45161696  0.61154087    -0.21100
C287        C  0.09083489  0.42569293  0.58828154    -0.09200
C288        C  0.07411847  0.37402144  0.57972004     0.29700
F289        F  0.03753991  0.34788856  0.55636898    -0.19700
H290        H  0.08348666  0.31116592  0.58483899     0.18100
H291        H  0.14511296  0.49196598  0.61867882     0.18100
F292        F  0.19599013  0.46143483  0.64353675    -0.19700
C293        C  0.39710439  0.12194894  0.81524774    -0.21100
C294        C  0.40272792  0.08713188  0.83528125    -0.09200
C295        C  0.37721222  0.07026935  0.86797905     0.29700
C296        C  0.35296358  0.09374679  0.88156147    -0.21100
C297        C  0.36069128  0.14007192  0.86472277    -0.09200
C298        C  0.37428293  0.14648741  0.82937840     0.29700
F299        F  0.36979634  0.17984649  0.80871278    -0.19700
H300        H  0.41322631  0.13264854  0.78910800     0.18100
H301        H  0.33183217  0.07776662  0.90633559     0.18100
F302        F  0.37698769  0.03224291  0.88704909    -0.19700
C303        C  0.37297219  0.27500605  0.87423333    -0.21100
C304        C  0.38783513  0.23929471  0.86826775    -0.09200
C305        C  0.43921805  0.26416747  0.84847500     0.29700
C306        C  0.46616902  0.31601352  0.83111835    -0.21100
C307        C  0.44492391  0.34590551  0.83375343    -0.09200
C308        C  0.39974928  0.32638093  0.85667719     0.29700
F309        F  0.37874939  0.35502666  0.86019900    -0.19700
H310        H  0.33704075  0.26153902  0.89016776     0.18100
H311        H  0.50229421  0.33156564  0.81399300     0.18100
F312        F  0.46417760  0.23955629  0.84451948    -0.19700
C313        C  0.19353774  0.07196120  0.85613276    -0.21100
C314        C  0.18719709  0.10473505  0.83461183    -0.09200
C315        C  0.23239554  0.15953936  0.82676579     0.29700
C316        C  0.28196706  0.18148551  0.84117894    -0.21100
C317        C  0.28846647  0.15113878  0.86595459    -0.09200
C318        C  0.24299703  0.09396176  0.87101328     0.29700
F319        F  0.24571859  0.05782846  0.88972572    -0.19700
H320        H  0.15980345  0.02886551  0.86170382     0.18100
H321        H  0.31553170  0.22186754  0.83057091     0.18100
F322        F  0.22981756  0.19166595  0.80363716    -0.19700
C323        C  0.36718562  0.14091624  0.97769411    -0.21100
C324        C  0.37746167  0.15626892  0.94256115    -0.09200
C325        C  0.42492086  0.16257386  0.92755467     0.29700
C326        C  0.44516793  0.13610932  0.94236094    -0.21100
C327        C  0.42518666  0.11020024  0.97466155    -0.09200
C328        C  0.38965836  0.11708396  0.49336004     0.29700
F329        F  0.37496579  0.09899711  0.52630740    -0.19700
H330        H  0.33869609  0.14407203  0.49280968     0.18100
H331        H  0.47643276  0.13562450  0.92837807     0.18100
F332        F  0.45084385  0.19125335  0.89785004    -0.19700
C333        C  0.33677467  0.23444732  0.96718757    -0.23300
C334        C  0.36734733  0.22916848  0.94151583    -0.09200
C335        C  0.42458356  0.27479290  0.93632195     0.29700
C336        C  0.44607124  0.32376362  0.95143399    -0.21100
C337        C  0.41254752  0.32926438  0.97328160    -0.09200
C338        C  0.35780835  0.28364675  0.98148042     0.29700
F339        F  0.32488037  0.28555788  0.50471720    -0.19700
H340        H  0.29679908  0.20034393  0.97830261     0.18100
H341        H  0.48922879  0.35782470  0.94566877     0.18100
F342        F  0.46113907  0.27291490  0.91703060    -0.19700
C343        C  0.25517247  0.08008606  0.95658485    -0.21100
C344        C  0.27869029  0.13144684  0.93829222    -0.09200
C345        C  0.24161036  0.14553440  0.93406417     0.29700
C346        C  0.18982387  0.11635949  0.95203962    -0.21100
C347        C  0.17172108  0.07122310  0.97407620    -0.09200
C348        C  0.20343801  0.05155021  0.97518154     0.29700
F349        F  0.18607848  0.00678379  0.49599792    -0.19700
H350        H  0.27729470  0.06247716  0.95787436     0.18100
H351        H  0.16554691  0.13178865  0.95064242     0.18100
F352        F  0.25722650  0.19155458  0.91585930    -0.19700
C353        C  0.34237993  0.67272228  0.42493671    -0.02300
C354        C  0.34581044  0.67619673  0.38190940    -0.02300
C355        C  0.16676412  0.85054782  0.13322759    -0.02300
C356        C  0.16271785  0.84669980  0.17649714    -0.02300
O357        O  0.40094607  0.89397442  0.49389740    -0.80700
O358        O  0.02142293  0.60667958  0.06717233    -0.65400
O359        O  0.48403867  0.00515558  0.00115302    -1.12000
C360        C  0.07337100  0.95701529  0.07178879     1.06200
O361        O  0.10692545  0.63440005  0.05714261    -0.78600
O362        O  0.13957553  0.58041066  0.02552515    -0.66200
Ni363      Ni  0.41271039  0.96321847  0.48504682     1.34900
C364        C  0.12676318  0.55259412  0.00029671     0.84900
O365        O  0.47001427  0.58848229  0.01147453    -0.79200
O366        O  0.41787017  0.52864589  0.47422957    -0.89400
C367        C  0.07279158  0.64240101  0.06899450     0.84500
O368        O  0.37055625  0.94884640  0.02633114    -0.67600
O369        O  0.09903447  0.50656993  0.07922223    -0.86900
C370        C  0.38193812  0.96774900  0.05486081     0.85300
C371        C  0.43878209  0.57376889  0.48762593     1.06900
H372        H  0.00501930  0.50188388  0.07678755     0.38700
O373        O  0.02763548  0.52150353  0.05604487    -1.09600
O374        O  0.07820374  0.51018687  0.99704364    -0.66200
Ni375      Ni  0.00896847  0.96848100  0.02500369     1.26300
O376        O  0.43030373  0.50653912  0.06167008    -0.66500
O377        O  0.03582955  0.93525850  0.05117162    -0.78800
C378        C  0.43417950  0.88217784  0.48736942     0.84700
O379        O  0.48439124  0.91393220  0.99367780    -0.65900
Ni380      Ni  0.10090610  0.56884428  0.06769740     1.27400
Ni381      Ni  0.49935822  0.55527457  0.03417245     1.26100
H382        H  0.00981233  0.52652241  0.48176950     0.39200
O383        O  0.12079311  0.61433892  0.31406370    -0.80700
O384        O  0.40845435  0.99430153  0.24120606    -0.65400
O385        O  0.00949899  0.53067056  0.30740810    -1.12000
C386        C  0.05868164  0.94292705  0.23621236     1.06200
O387        O  0.38113646  0.91001254  0.25231222    -0.78600
O388        O  0.43468449  0.87743513  0.28296622    -0.66200
Ni389      Ni  0.05022710  0.60026628  0.32483083     1.34900
C390        C  0.46278291  0.89039936  0.30802926     0.84900
O391        O  0.42652440  0.54536335  0.29729632    -0.79200
O392        O  0.48287631  0.59150347  0.33750093    -0.89400
C393        C  0.37290378  0.94308561  0.23961563     0.84500
O394        O  0.06220197  0.64344253  0.28474180    -0.67600
O395        O  0.00875768  0.91725148  0.22901481    -0.86900
C396        C  0.04573042  0.63304106  0.25553063     0.85300
C397        C  0.43904610  0.57299467  0.32283280     1.06900
H398        H  0.01372307  0.51048981  0.23153178     0.38700
O399        O  0.49402866  0.98816305  0.25231403    -1.09600
O400        O  0.00581075  0.93846271  0.31103923    -0.66200
Ni401      Ni  0.04727997  0.50702804  0.28319533     1.26300
O402        O  0.00969214  0.58486767  0.24735686    -0.66500
O403        O  0.08086811  0.98056472  0.25670333    -0.78800
C404        C  0.13373189  0.58222158  0.32056687     0.84700
O405        O  0.10240438  0.53218394  0.31432741    -0.65900
Ni406      Ni  0.44631876  0.91543723  0.24090229     1.27400
Ni407      Ni  0.45980795  0.51606964  0.27435486     1.26100
H408        H  0.48747777  0.50433520  0.32646248     0.39200
C409        C  0.22640015  0.84395141  0.21808688    -0.21100
C410        C  0.22070621  0.87311659  0.19191010    -0.09200
C411        C  0.26827358  0.92899114  0.18417645     0.29700
C412        C  0.31690377  0.95151074  0.19990142    -0.21100
C413        C  0.32089493  0.92043329  0.22425602    -0.09200
C414        C  0.27504543  0.86639462  0.23326636     0.29700
F415        F  0.27616999  0.83503903  0.25783887    -0.19700
H416        H  0.19328032  0.80352067  0.22889440     0.18100
H417        H  0.35182899  0.99370433  0.19277678     0.18100
F418        F  0.26887287  0.96404567  0.16236951    -0.19700
C419        C  0.06267589  0.88438944  0.19741039    -0.21100
C420        C  0.08967016  0.92492879  0.21984282    -0.09200
C421        C  0.14188179  0.94211536  0.22807502     0.29700
C422        C  0.16598562  0.91867738  0.21403318    -0.21100
C423        C  0.13907038  0.87730048  0.19087812    -0.09200
C424        C  0.08523035  0.85975620  0.18449761     0.29700
F425        F  0.05221383  0.81711339  0.16650080    -0.19700
H426        H  0.02181289  0.86898386  0.19063967     0.18100
H427        H  0.20443201  0.93187480  0.22348623     0.18100
F428        F  0.16872128  0.97957250  0.25084610    -0.19700
C429        C  0.05835404  0.71850949  0.24067232    -0.21100
C430        C  0.06712508  0.68065321  0.23139530    -0.09200
C431        C  0.10322322  0.69390880  0.20316447     0.29700
C432        C  0.13144720  0.74567098  0.18520611    -0.21100
C433        C  0.12286641  0.78539611  0.19361754    -0.09200
C434        C  0.08628723  0.76996804  0.22340035     0.29700
F435        F  0.08185112  0.80538582  0.23985257    -0.19700
H436        H  0.03250762  0.70968918  0.26345452     0.18100
H437        H  0.16247310  0.75547630  0.16569296     0.18100
F438        F  0.11461174  0.65874334  0.19451081    -0.19700
C439        C  0.16873422  0.78958388  0.08896531    -0.21100
C440        C  0.14022920  0.79347938  0.11688918    -0.09200
C441        C  0.08429219  0.74576417  0.12462349     0.29700
C442        C  0.06252398  0.69745435  0.10879062    -0.21100
C443        C  0.09413960  0.69438835  0.08386955    -0.09200
C444        C  0.14717871  0.74131768  0.07366483     0.29700
F445        F  0.17805907  0.74150479  0.04778693    -0.19700
H446        H  0.20783022  0.82402622  0.07698316     0.18100
H447        H  0.02065716  0.66192261  0.11645689     0.18100
F448        F  0.04904284  0.74416788  0.14728729    -0.19700
C449        C  0.24736155  0.93105863  0.09129776    -0.21100
C450        C  0.22920914  0.88909567  0.11746623    -0.09200
C451        C  0.26727032  0.87678611  0.12346918     0.29700
C452        C  0.31940567  0.90570478  0.10524969    -0.21100
C453        C  0.33476994  0.94624420  0.07974266    -0.09200
C454        C  0.29858264  0.95887337  0.07329236     0.29700
F455        F  0.31070265  0.99506768  0.04709036    -0.19700
H456        H  0.22127925  0.94062058  0.08151435     0.18100
H457        H  0.34599666  0.89353911  0.10937732     0.18100
F458        F  0.25220128  0.83299962  0.14430849    -0.19700
C459        C  0.09688707  0.84955164  0.09419619    -0.21100
C460        C  0.13725115  0.87546120  0.11808845    -0.09200
C461        C  0.15407877  0.92873240  0.12492465     0.29700
C462        C  0.13015545  0.95163821  0.11151426    -0.21100
C463        C  0.09087180  0.92571437  0.08825496    -0.09200
C464        C  0.07414793  0.87403885  0.07969753     0.29700
F465        F  0.03756580  0.84790444  0.05634844    -0.19700
H466        H  0.08351064  0.81117983  0.08481891     0.18100
H467        H  0.14515159  0.99198845  0.11865066     0.18100
F468        F  0.19601750  0.96144799  0.14351733    -0.19700
C469        C  0.39709328  0.62197736  0.31524780    -0.21100
C470        C  0.40272065  0.58715747  0.33527429    -0.09200
C471        C  0.37719873  0.57027668  0.36797073     0.29700
C472        C  0.35294052  0.59374107  0.38156042    -0.21100
C473        C  0.36066603  0.64007013  0.36473040    -0.09200
C474        C  0.37426294  0.64650261  0.32938546     0.29700
F475        F  0.36977599  0.67986816  0.30872675    -0.19700
H476        H  0.41321900  0.63268942  0.28910867     0.18100
H477        H  0.33180885  0.57775252  0.40633428     0.18100
F478        F  0.37698285  0.53224964  0.38703343    -0.19700
C479        C  0.37294658  0.77499809  0.37424820    -0.21100
C480        C  0.38781209  0.73928791  0.36828715    -0.09200
C481        C  0.43920340  0.76416400  0.34850304     0.29700
C482        C  0.46616371  0.81601408  0.33114986    -0.21100
C483        C  0.44491398  0.84590296  0.33377470    -0.09200
C484        C  0.39972458  0.82637121  0.35668829     0.29700
F485        F  0.37871335  0.85500870  0.36019663    -0.19700
H486        H  0.33700781  0.76152647  0.39017732     0.18100
H487        H  0.50229699  0.83156878  0.31403162     0.18100
F488        F  0.46416254  0.73955151  0.34455287    -0.19700
C489        C  0.19351253  0.57195784  0.35614517    -0.21100
C490        C  0.18717713  0.60473399  0.33462224    -0.09200
C491        C  0.23237742  0.65953810  0.32677880     0.29700
C492        C  0.28194532  0.68148147  0.34119502    -0.21100
C493        C  0.28844037  0.65113299  0.36597180    -0.09200
C494        C  0.24296938  0.59395645  0.37102914     0.29700
F495        F  0.24568925  0.55782183  0.38974156    -0.19700
H496        H  0.15977701  0.52886215  0.36171422     0.18100
H497        H  0.31551218  0.72186186  0.33058626     0.18100
F498        F  0.22980567  0.69166737  0.30364866    -0.19700
C499        C  0.36715671  0.64090488  0.47771421    -0.21100
C500        C  0.37742753  0.65624359  0.44257904    -0.09200
C501        C  0.42487751  0.66253111  0.42757355     0.29700
C502        C  0.44511647  0.63606241  0.44238426    -0.21100
C503        C  0.42513882  0.61016733  0.47468792    -0.09200
C504        C  0.38962479  0.61707122  0.99338502     0.29700
F505        F  0.37494504  0.59900757  0.02633612    -0.19700
H506        H  0.33867566  0.64407445  0.99282807     0.18100
H507        H  0.47637454  0.63556555  0.42840286     0.18100
F508        F  0.45080451  0.69120381  0.39786800    -0.19700
C509        C  0.33676593  0.73445338  0.46719435    -0.23300
C510        C  0.36733178  0.72915578  0.44152891    -0.09200
C511        C  0.42457272  0.77476862  0.43633445     0.29700
C512        C  0.44607407  0.82374684  0.45143947    -0.21100
C513        C  0.41255909  0.82926814  0.47327970    -0.09200
C514        C  0.35781423  0.78366147  0.48148043     0.29700
F515        F  0.32489301  0.78559322  0.00471078    -0.19700
H516        H  0.29678470  0.70036004  0.47830859     0.18100
H517        H  0.48923489  0.85779848  0.44567310     0.18100
F518        F  0.46111993  0.77287232  0.41704824    -0.19700
C519        C  0.25514811  0.58007032  0.45660379    -0.21100
C520        C  0.27866372  0.63143169  0.43831198    -0.09200
C521        C  0.24158191  0.64551711  0.43408706     0.29700
C522        C  0.18979575  0.61633940  0.45206480    -0.21100
C523        C  0.17169629  0.57120309  0.47410130    -0.09200
C524        C  0.20341699  0.55153430  0.47520454     0.29700
F525        F  0.18606360  0.50677000  0.99602123    -0.19700
H526        H  0.27727081  0.56246146  0.45788981     0.18100
H527        H  0.16551641  0.63176603  0.45066923     0.18100
F528        F  0.25719620  0.69153689  0.41588205    -0.19700
C529        C  0.34237993  0.67272228  0.92493666    -0.02300
C530        C  0.34581041  0.67619673  0.88190936    -0.02300
C531        C  0.16676407  0.85054780  0.63322760    -0.02300
C532        C  0.16271785  0.84669981  0.67649715    -0.02300
O533        O  0.40094597  0.89397442  0.99389729    -0.80700
O534        O  0.02142294  0.60667963  0.56717224    -0.65400
O535        O  0.48403881  0.00515563  0.50115302    -1.12000
C536        C  0.07337112  0.95701538  0.57178876     1.06200
O537        O  0.10692539  0.63439998  0.55714256    -0.78600
O538        O  0.13957549  0.58041052  0.52552519    -0.66200
Ni539      Ni  0.41271028  0.96321847  0.98504680     1.34900
C540        C  0.12676321  0.55259406  0.50029669     0.84900
O541        O  0.47001440  0.58848247  0.51147443    -0.79200
O542        O  0.41787024  0.52864586  0.97422953    -0.89400
C543        C  0.07279158  0.64240099  0.56899447     0.84500
O544        O  0.37055628  0.94884638  0.52633113    -0.67600
O545        O  0.09903425  0.50656985  0.57922240    -0.86900
C546        C  0.38193808  0.96774896  0.55486081     0.85300
C547        C  0.43878209  0.57376882  0.98762596     1.06900
H548        H  0.00501872  0.50188334  0.57678799     0.38700
O549        O  0.02763539  0.52150344  0.55604490    -1.09600
O550        O  0.07820379  0.51018684  0.49704357    -0.66200
Ni551      Ni  0.00896847  0.96848099  0.52500373     1.26300
O552        O  0.43030375  0.50653933  0.56167000    -0.66500
O553        O  0.03582947  0.93525846  0.55117172    -0.78800
C554        C  0.43417943  0.88217783  0.98736938     0.84700
O555        O  0.48439128  0.91393218  0.49367787    -0.65900
Ni556      Ni  0.10090596  0.56884421  0.56769745     1.27400
Ni557      Ni  0.49935825  0.55527460  0.53417241     1.26100
H558        H  0.00981245  0.52652262  0.98176945     0.39200
O559        O  0.12079308  0.61433886  0.81406365    -0.80700
O560        O  0.40845438  0.99430155  0.74120612    -0.65400
O561        O  0.00949904  0.53067056  0.80740810    -1.12000
C562        C  0.05868172  0.94292711  0.73621234     1.06200
O563        O  0.38113647  0.91001256  0.75231233    -0.78600
O564        O  0.43468456  0.87743504  0.78296615    -0.66200
Ni565      Ni  0.05022710  0.60026624  0.82483083     1.34900
C566        C  0.46278287  0.89039930  0.80802924     0.84900
O567        O  0.42652434  0.54536335  0.79729627    -0.79200
O568        O  0.48287625  0.59150339  0.83750090    -0.89400
C569        C  0.37290376  0.94308563  0.73961576     0.84500
O570        O  0.06220200  0.64344250  0.78474178    -0.67600
O571        O  0.00875777  0.91725157  0.72901475    -0.86900
C572        C  0.04573037  0.63304109  0.75553062     0.85300
C573        C  0.43904603  0.57299461  0.82283277     1.06900
H574        H  0.01372319  0.51048976  0.73153188     0.38700
O575        O  0.49402875  0.98816305  0.75231399    -1.09600
O576        O  0.00581062  0.93846267  0.81103926    -0.66200
Ni577      Ni  0.04727999  0.50702800  0.78319535     1.26300
O578        O  0.00969218  0.58486770  0.74735680    -0.66500
O579        O  0.08086818  0.98056473  0.75670337    -0.78800
C580        C  0.13373188  0.58222156  0.82056688     0.84700
O581        O  0.10240445  0.53218392  0.81432742    -0.65900
Ni582      Ni  0.44631879  0.91543723  0.74090226     1.27400
Ni583      Ni  0.45980798  0.51606967  0.77435486     1.26100
H584        H  0.48747793  0.50433534  0.82646235     0.39200
C585        C  0.22640027  0.84395138  0.71808684    -0.21100
C586        C  0.22070627  0.87311656  0.69191008    -0.09200
C587        C  0.26827363  0.92899110  0.68417645     0.29700
C588        C  0.31690383  0.95151076  0.69990144    -0.21100
C589        C  0.32089499  0.92043330  0.72425605    -0.09200
C590        C  0.27504553  0.86639461  0.73326636     0.29700
F591        F  0.27617005  0.83503907  0.75783895    -0.19700
H592        H  0.19328045  0.80352066  0.72889436     0.18100
H593        H  0.35182899  0.99370441  0.69277692     0.18100
F594        F  0.26887270  0.96404565  0.66236967    -0.19700
C595        C  0.06267580  0.88438933  0.69741049    -0.21100
C596        C  0.08967015  0.92492874  0.71984285    -0.09200
C597        C  0.14188177  0.94211536  0.72807499     0.29700
C598        C  0.16598563  0.91867740  0.71403315    -0.21100
C599        C  0.13907037  0.87730048  0.69087813    -0.09200
C600        C  0.08523034  0.85975621  0.68449764     0.29700
F601        F  0.05221380  0.81711327  0.66650093    -0.19700
H602        H  0.02181274  0.86898368  0.69063983     0.18100
H603        H  0.20443205  0.93187484  0.72348617     0.18100
F604        F  0.16872120  0.97957253  0.75084605    -0.19700
C605        C  0.05835418  0.71850966  0.74067241    -0.21100
C606        C  0.06712495  0.68065325  0.73139529    -0.09200
C607        C  0.10322303  0.69390881  0.70316446     0.29700
C608        C  0.13144723  0.74567103  0.68520616    -0.21100
C609        C  0.12286643  0.78539616  0.69361758    -0.09200
C610        C  0.08628728  0.76996813  0.72340039     0.29700
F611        F  0.08185096  0.80538580  0.73985262    -0.19700
H612        H  0.03250792  0.70968946  0.76345468     0.18100
H613        H  0.16247323  0.75547634  0.66569308     0.18100
F614        F  0.11461171  0.65874346  0.69451094    -0.19700
C615        C  0.16873414  0.78958395  0.58896524    -0.21100
C616        C  0.14022918  0.79347938  0.61688917    -0.09200
C617        C  0.08429221  0.74576413  0.62462347     0.29700
C618        C  0.06252399  0.69745428  0.60879062    -0.21100
C619        C  0.09413964  0.69438828  0.58386960    -0.09200
C620        C  0.14717870  0.74131768  0.57366486     0.29700
F621        F  0.17805914  0.74150473  0.54778707    -0.19700
H622        H  0.20783009  0.82402634  0.57698305     0.18100
H623        H  0.02065716  0.66192255  0.61645684     0.18100
F624        F  0.04904289  0.74416786  0.64728724    -0.19700
C625        C  0.24736149  0.93105865  0.59129782    -0.21100
C626        C  0.22920908  0.88909565  0.61746627    -0.09200
C627        C  0.26727024  0.87678607  0.62346918     0.29700
C628        C  0.31940561  0.90570483  0.60524972    -0.21100
C629        C  0.33476982  0.94624417  0.57974263    -0.09200
C630        C  0.29858250  0.95887329  0.57329233     0.29700
F631        F  0.31070240  0.99506757  0.54709032    -0.19700
H632        H  0.22127920  0.94062062  0.58151440     0.18100
H633        H  0.34599666  0.89353922  0.60937740     0.18100
F634        F  0.25220128  0.83299954  0.64430842    -0.19700
C635        C  0.09688704  0.84955165  0.59419618    -0.21100
C636        C  0.13725110  0.87546119  0.61808845    -0.09200
C637        C  0.15407876  0.92873238  0.62492464     0.29700
C638        C  0.13015541  0.95163819  0.61151433    -0.21100
C639        C  0.09087193  0.92571448  0.58825490    -0.09200
C640        C  0.07414809  0.87403899  0.57969744     0.29700
F641        F  0.03756593  0.84790451  0.55634837    -0.19700
H642        H  0.08351041  0.81117974  0.58481897     0.18100
H643        H  0.14515145  0.99198837  0.61865083     0.18100
F644        F  0.19601757  0.96144797  0.64351725    -0.19700
C645        C  0.39709314  0.62197722  0.81524782    -0.21100
C646        C  0.40272056  0.58715738  0.83527431    -0.09200
C647        C  0.37719875  0.57027666  0.86797082     0.29700
C648        C  0.35294051  0.59374104  0.88156048    -0.21100
C649        C  0.36066595  0.64007006  0.86473041    -0.09200
C650        C  0.37426287  0.64650253  0.82938545     0.29700
F651        F  0.36977605  0.67986815  0.80872669    -0.19700
H652        H  0.41321886  0.63268931  0.78910869     0.18100
H653        H  0.33180886  0.57775250  0.90633435     0.18100
F654        F  0.37698292  0.53224965  0.88703354    -0.19700
C655        C  0.37294649  0.77499804  0.87424812    -0.21100
C656        C  0.38781202  0.73928788  0.86828709    -0.09200
C657        C  0.43920331  0.76416397  0.84850298     0.29700
C658        C  0.46616363  0.81601402  0.83114977    -0.21100
C659        C  0.44491395  0.84590293  0.83377467    -0.09200
C660        C  0.39972456  0.82637118  0.85668827     0.29700
F661        F  0.37871343  0.85500872  0.86019676    -0.19700
H662        H  0.33700771  0.76152644  0.89017722     0.18100
H663        H  0.50229688  0.83156869  0.81403151     0.18100
F664        F  0.46416237  0.73955143  0.84455279    -0.19700
C665        C  0.19351241  0.57195793  0.85614532    -0.21100
C666        C  0.18717705  0.60473404  0.83462234    -0.09200
C667        C  0.23237745  0.65953810  0.82677873     0.29700
C668        C  0.28194537  0.68148148  0.84119491    -0.21100
C669        C  0.28844038  0.65113305  0.86597175    -0.09200
C670        C  0.24296938  0.59395649  0.87102912     0.29700
F671        F  0.24568935  0.55782185  0.88974145    -0.19700
H672        H  0.15977685  0.52886227  0.86171443     0.18100
H673        H  0.31551223  0.72186182  0.83058607     0.18100
F674        F  0.22980572  0.69166731  0.80364856    -0.19700
C675        C  0.36715671  0.64090486  0.97771414    -0.21100
C676        C  0.37742758  0.65624360  0.94257897    -0.09200
C677        C  0.42487771  0.66253127  0.92757355     0.29700
C678        C  0.44511676  0.63606268  0.94238434    -0.21100
C679        C  0.42513898  0.61016745  0.97468795    -0.09200
C680        C  0.38962462  0.61707106  0.49338505     0.29700
F681        F  0.37494486  0.59900749  0.52633618    -0.19700
H682        H  0.33867579  0.64407461  0.49282820     0.18100
H683        H  0.47637487  0.63556580  0.92840301     0.18100
F684        F  0.45080460  0.69120378  0.89786792    -0.19700
C685        C  0.33676597  0.73445335  0.96719440    -0.23300
C686        C  0.36733176  0.72915578  0.94152889    -0.09200
C687        C  0.42457265  0.77476865  0.93633439     0.29700
C688        C  0.44607399  0.82374687  0.95143941    -0.21100
C689        C  0.41255905  0.82926811  0.97327973    -0.09200
C690        C  0.35781422  0.78366147  0.98148048     0.29700
F691        F  0.32489302  0.78559318  0.50471074    -0.19700
H692        H  0.29678476  0.70035997  0.97830865     0.18100
H693        H  0.48923478  0.85779853  0.94567301     0.18100
F694        F  0.46111994  0.77287223  0.91704836    -0.19700
C695        C  0.25514808  0.58007032  0.95660372    -0.21100
C696        C  0.27866371  0.63143170  0.93831191    -0.09200
C697        C  0.24158194  0.64551722  0.93408707     0.29700
C698        C  0.18979589  0.61633961  0.95206491    -0.21100
C699        C  0.17169632  0.57120318  0.97410134    -0.09200
C700        C  0.20341702  0.55153437  0.97520456     0.29700
F701        F  0.18606356  0.50677002  0.49602129    -0.19700
H702        H  0.27727072  0.56246139  0.95788970     0.18100
H703        H  0.16551672  0.63176644  0.95066941     0.18100
F704        F  0.25719623  0.69153714  0.91588221    -0.19700
C705        C  0.84240676  0.17273925  0.42492019    -0.02300
C706        C  0.84583663  0.17620593  0.38189335    -0.02300
C707        C  0.66673876  0.35053460  0.13324938    -0.02300
C708        C  0.66269295  0.34668517  0.17651913    -0.02300
O709        O  0.90091228  0.39394343  0.49392573    -0.80700
O710        O  0.52143765  0.10668642  0.06716098    -0.65400
O711        O  0.98399316  0.50512724  0.00117606    -1.12000
C712        C  0.57333181  0.45699329  0.07181743     1.06200
O713        O  0.60694787  0.13442285  0.05713959    -0.78600
O714        O  0.63959784  0.08045907  0.02548864    -0.66200
Ni715      Ni  0.91265608  0.46317942  0.48508228     1.34900
C716        C  0.62679027  0.05261982  0.00027101     0.84900
O717        O  0.97004011  0.08849820  0.01145733    -0.79200
O718        O  0.91794409  0.02869341  0.47418626    -0.89400
C719        C  0.57280374  0.14241026  0.06899227     0.84500
O720        O  0.87051935  0.44880505  0.02637378    -0.67600
O721        O  0.59909458  0.00660177  0.07917793    -0.86900
C722        C  0.88191065  0.46773484  0.05489555     0.85300
C723        C  0.93883396  0.07380246  0.48759541     1.06900
H724        H  0.50505918  0.00190871  0.07676970     0.38700
O725        O  0.52767120  0.02152586  0.05602538    -1.09600
O726        O  0.57823837  0.01019139  0.99702982    -0.66200
Ni727      Ni  0.50893772  0.46846269  0.02502188     1.26300
O728        O  0.93033056  0.00653851  0.06164606    -0.66500
O729        O  0.53581347  0.43524794  0.05118466    -0.78800
C730        C  0.93415502  0.38216196  0.48738458     0.84700
O731        O  0.98436634  0.41391976  0.99369325    -0.65900
Ni732      Ni  0.60094539  0.06887059  0.06767184     1.27400
Ni733      Ni  0.99938907  0.05529281  0.03415416     1.26100
H734        H  0.50986691  0.02655538  0.48175104     0.39200
O735        O  0.62079236  0.11432467  0.31407098    -0.80700
O736        O  0.90842530  0.49429437  0.24121791    -0.65400
O737        O  0.50950186  0.03063835  0.30741020    -1.12000
C738        C  0.55866889  0.44294722  0.23620003     1.06200
O739        O  0.88112911  0.41001583  0.25232981    -0.78600
O740        O  0.93471880  0.37743440  0.28293488    -0.66200
Ni741      Ni  0.55021298  0.10021836  0.32485207     1.34900
C742        C  0.96278591  0.39040492  0.30801332     0.84900
O743        O  0.92655353  0.04536925  0.29728922    -0.79200
O744        O  0.98284706  0.09141764  0.33753566    -0.89400
C745        C  0.87288152  0.44307716  0.23963285     0.84500
O746        O  0.56216788  0.14341693  0.28477817    -0.67600
O747        O  0.50876306  0.41730883  0.22897394    -0.86900
C748        C  0.54573515  0.13303198  0.25555700     0.85300
C749        C  0.93904599  0.07295650  0.32284519     1.06900
H750        H  0.51372559  0.01045962  0.23152819     0.38700
O751        O  0.99401965  0.48818358  0.25231529    -1.09600
O752        O  0.50577534  0.43848083  0.31104643    -0.66200
Ni753      Ni  0.54729605  0.00701627  0.28319164     1.26300
O754        O  0.50973571  0.08486126  0.24736382    -0.66500
O755        O  0.58083761  0.48055103  0.25671476    -0.78800
C756        C  0.63374670  0.08221691  0.32056248     0.84700
O757        O  0.60242665  0.03218060  0.31431973    -0.65900
Ni758      Ni  0.94631719  0.41546520  0.24088914     1.27400
Ni759      Ni  0.95982514  0.01605872  0.27435137     1.26100
H760        H  0.98747530  0.00429135  0.32645679     0.39200
C761        C  0.72638294  0.34393154  0.21810148    -0.21100
C762        C  0.72068131  0.37310251  0.19193250    -0.09200
C763        C  0.76824532  0.42897884  0.18420159     0.29700
C764        C  0.81687560  0.45149813  0.19992507    -0.21100
C765        C  0.82087267  0.42041724  0.22427342    -0.09200
C766        C  0.77503048  0.36637408  0.23327808     0.29700
F767        F  0.77616497  0.33501283  0.25784125    -0.19700
H768        H  0.69326942  0.30349507  0.22890391     0.18100
H769        H  0.85179683  0.49369478  0.19280380     0.18100
F770        F  0.76884120  0.46403534  0.16239864    -0.19700
C771        C  0.56265008  0.38437489  0.19742127    -0.21100
C772        C  0.58965215  0.42493487  0.21984118    -0.09200
C773        C  0.64186212  0.44212157  0.22807722     0.29700
C774        C  0.66596155  0.41867249  0.21404636    -0.21100
C775        C  0.63904379  0.37728484  0.19089812    -0.09200
C776        C  0.58520086  0.35973166  0.18451977     0.29700
F777        F  0.55218368  0.31707819  0.16653009    -0.19700
H778        H  0.52178454  0.36896152  0.19065167     0.18100
H779        H  0.70440717  0.43187214  0.22350147     0.18100
F780        F  0.66870597  0.47959329  0.25083998    -0.19700
C781        C  0.55837828  0.21851837  0.24071653    -0.21100
C782        C  0.56713288  0.18065413  0.23142972    -0.09200
C783        C  0.60320027  0.19389597  0.20318471     0.29700
C784        C  0.63141634  0.24565463  0.18522389    -0.21100
C785        C  0.62284454  0.28538381  0.19364112    -0.09200
C786        C  0.58629292  0.26996869  0.22343607     0.29700
F787        F  0.58186693  0.30539344  0.23988772    -0.19700
H788        H  0.53255224  0.20970708  0.26350710     0.18100
H789        H  0.66243060  0.25545339  0.16570412     0.18100
F790        F  0.61457055  0.15872144  0.19451928    -0.19700
C791        C  0.66872271  0.28958765  0.08897949    -0.21100
C792        C  0.64021197  0.29347086  0.11690576    -0.09200
C793        C  0.58427749  0.24574936  0.12463666     0.29700
C794        C  0.56251758  0.19744456  0.10879821    -0.21100
C795        C  0.59414010  0.19439057  0.08387511    -0.09200
C796        C  0.64717715  0.24132682  0.07367473     0.29700
F797        F  0.67806550  0.24152622  0.04779662    -0.19700
H798        H  0.70781654  0.32403635  0.07699897     0.18100
H799        H  0.52065238  0.16190749  0.11646159     0.18100
F800        F  0.54902406  0.24414280  0.14730283    -0.19700
C801        C  0.74734438  0.43106031  0.09133115    -0.21100
C802        C  0.72918453  0.38908661  0.11749319    -0.09200
C803        C  0.76724218  0.37677294  0.12349657     0.29700
C804        C  0.81937891  0.40569287  0.10528070    -0.21100
C805        C  0.83475091  0.44624234  0.07977993    -0.09200
C806        C  0.79857127  0.45888269  0.07333258     0.29700
F807        F  0.81070279  0.49509271  0.04713787    -0.19700
H808        H  0.72126554  0.44062644  0.08154737     0.18100
H809        H  0.84596528  0.39352080  0.10940564     0.18100
F810        F  0.75216844  0.33298129  0.14433232    -0.19700
C811        C  0.59686027  0.34953615  0.09421756    -0.21100
C812        C  0.63722356  0.37544593  0.11811026    -0.09200
C813        C  0.65404719  0.42871520  0.12494787     0.29700
C814        C  0.63011840  0.45161694  0.11154090    -0.21100
C815        C  0.59083484  0.42569293  0.08828155    -0.09200
C816        C  0.57411840  0.37402146  0.07972001     0.29700
F817        F  0.53753993  0.34788867  0.05636887    -0.19700
H818        H  0.58348670  0.31116601  0.08483894     0.18100
H819        H  0.64511280  0.49196592  0.11867891     0.18100
F820        F  0.69599009  0.46143485  0.14353683    -0.19700
C821        C  0.89710437  0.12194888  0.31524778    -0.21100
C822        C  0.90272776  0.08713173  0.33528126    -0.09200
C823        C  0.87721214  0.07026931  0.36797911     0.29700
C824        C  0.85296356  0.09374683  0.38156151    -0.21100
C825        C  0.86069140  0.14007202  0.36472279    -0.09200
C826        C  0.87428311  0.14648751  0.32937842     0.29700
F827        F  0.86979660  0.17984656  0.30871270    -0.19700
H828        H  0.91322629  0.13264845  0.28910804     0.18100
H829        H  0.83183206  0.07776664  0.40633560     0.18100
F830        F  0.87698761  0.03224291  0.38704918    -0.19700
C831        C  0.87297222  0.27500604  0.37423329    -0.21100
C832        C  0.88783524  0.23929478  0.36826774    -0.09200
C833        C  0.93921824  0.26416758  0.34847504     0.29700
C834        C  0.96616912  0.31601360  0.33111836    -0.21100
C835        C  0.94492396  0.34590557  0.33375343    -0.09200
C836        C  0.89974919  0.32638089  0.35667714     0.29700
F837        F  0.87874934  0.35502667  0.36019905    -0.19700
H838        H  0.83704075  0.26153891  0.39016770     0.18100
H839        H  0.00229427  0.33156572  0.31399299     0.18100
F840        F  0.96417784  0.23955640  0.34451955    -0.19700
C841        C  0.69353790  0.07196123  0.35613263    -0.21100
C842        C  0.68719716  0.10473513  0.33461185    -0.09200
C843        C  0.73239560  0.15953943  0.32676581     0.29700
C844        C  0.78196717  0.18148557  0.34117890    -0.21100
C845        C  0.78846659  0.15113881  0.36595452    -0.09200
C846        C  0.74299716  0.09396174  0.37101314     0.29700
F847        F  0.74571848  0.05782827  0.38972557    -0.19700
H848        H  0.65980367  0.02886550  0.36170360     0.18100
H849        H  0.81553181  0.22186761  0.33057089     0.18100
F850        F  0.72981750  0.19166601  0.30363724    -0.19700
C851        C  0.86718554  0.14091627  0.47769408    -0.21100
C852        C  0.87746160  0.15626895  0.44256114    -0.09200
C853        C  0.92492082  0.16257393  0.42755469     0.29700
C854        C  0.94516791  0.13610941  0.44236094    -0.21100
C855        C  0.92518656  0.11020021  0.47466151    -0.09200
C856        C  0.88965839  0.11708393  0.99336007     0.29700
F857        F  0.87496555  0.09899683  0.02630741    -0.19700
H858        H  0.83869618  0.14407204  0.99280965     0.18100
H859        H  0.97643278  0.13562465  0.42837810     0.18100
F860        F  0.95084383  0.19125343  0.39785010    -0.19700
C861        C  0.83677465  0.23444735  0.46718758    -0.23300
C862        C  0.86734727  0.22916851  0.44151579    -0.09200
C863        C  0.92458351  0.27479291  0.43632188     0.29700
C864        C  0.94607129  0.32376356  0.45143402    -0.21100
C865        C  0.91254758  0.32926439  0.47328157    -0.09200
C866        C  0.85780844  0.28364683  0.48148041     0.29700
F867        F  0.82488020  0.28555761  0.00471723    -0.19700
H868        H  0.79679898  0.20034400  0.47830259     0.18100
H869        H  0.98922889  0.35782457  0.44566880     0.18100
F870        F  0.96113901  0.27291497  0.41703045    -0.19700
C871        C  0.75517246  0.08008606  0.45658476    -0.21100
C872        C  0.77869024  0.13144683  0.43829213    -0.09200
C873        C  0.74161031  0.14553439  0.43406411     0.29700
C874        C  0.68982387  0.11635951  0.45203963    -0.21100
C875        C  0.67172110  0.07122309  0.47407617    -0.09200
C876        C  0.70343798  0.05155019  0.47518142     0.29700
F877        F  0.68607855  0.00678381  0.99599805    -0.19700
H878        H  0.77729474  0.06247722  0.45787434     0.18100
H879        H  0.66554692  0.13178869  0.45064251     0.18100
F880        F  0.75722645  0.19155466  0.41585934    -0.19700
C881        C  0.84240680  0.17273922  0.92492022    -0.02300
C882        C  0.84583652  0.17620585  0.88189337    -0.02300
C883        C  0.66673881  0.35053460  0.63324935    -0.02300
C884        C  0.66269293  0.34668520  0.67651911    -0.02300
O885        O  0.90091235  0.39394339  0.99392585    -0.80700
O886        O  0.52143755  0.10668634  0.56716104    -0.65400
O887        O  0.98399319  0.50512722  0.50117603    -1.12000
C888        C  0.57333190  0.45699331  0.57181743     1.06200
O889        O  0.60694778  0.13442281  0.55713967    -0.78600
O890        O  0.63959792  0.08045913  0.52548863    -0.66200
Ni891      Ni  0.91265607  0.46317934  0.98508230     1.34900
C892        C  0.62679033  0.05261979  0.50027104     0.84900
O893        O  0.97003998  0.08849807  0.51145730    -0.79200
O894        O  0.91794416  0.02869350  0.97418634    -0.89400
C895        C  0.57280363  0.14241016  0.56899238     0.84500
O896        O  0.87051937  0.44880522  0.52637372    -0.67600
O897        O  0.59909472  0.00660188  0.57917784    -0.86900
C898        C  0.88191070  0.46773495  0.55489550     0.85300
C899        C  0.93883408  0.07380255  0.98759547     1.06900
H900        H  0.50505921  0.00190872  0.57676972     0.38700
O901        O  0.52767115  0.02152582  0.55602542    -1.09600
O902        O  0.57823842  0.01019129  0.49702992    -0.66200
Ni903      Ni  0.50893776  0.46846267  0.52502186     1.26300
O904        O  0.93033053  0.00653842  0.56164607    -0.66500
O905        O  0.53581366  0.43524801  0.55118459    -0.78800
C906        C  0.93415507  0.38216192  0.98738468     0.84700
O907        O  0.98436628  0.41391972  0.49369322    -0.65900
Ni908      Ni  0.60094536  0.06887058  0.56767182     1.27400
Ni909      Ni  0.99938906  0.05529279  0.53415416     1.26100
H910        H  0.50986610  0.02655485  0.98175149     0.39200
O911        O  0.62079238  0.11432463  0.81407086    -0.80700
O912        O  0.90842523  0.49429439  0.74121800    -0.65400
O913        O  0.50950186  0.03063836  0.80741014    -1.12000
C914        C  0.55866885  0.44294720  0.73620003     1.06200
O915        O  0.88112913  0.41001589  0.75232986    -0.78600
O916        O  0.93471868  0.37743432  0.78293488    -0.66200
Ni917      Ni  0.55021304  0.10021832  0.82485206     1.34900
C918        C  0.96278581  0.39040483  0.80801331     0.84900
O919        O  0.92655357  0.04536918  0.79728931    -0.79200
O920        O  0.98284712  0.09141760  0.83753574    -0.89400
C921        C  0.87288149  0.44307721  0.73963293     0.84500
O922        O  0.56216796  0.14341701  0.78477824    -0.67600
O923        O  0.50876299  0.41730872  0.72897401    -0.86900
C924        C  0.54573520  0.13303205  0.75555708     0.85300
C925        C  0.93904608  0.07295652  0.82284524     1.06900
H926        H  0.51372576  0.01045965  0.73152817     0.38700
O927        O  0.99401968  0.48818353  0.75231534    -1.09600
O928        O  0.50577523  0.43848075  0.81104644    -0.66200
Ni929      Ni  0.54729605  0.00701624  0.78319166     1.26300
O930        O  0.50973581  0.08486132  0.74736388    -0.66500
O931        O  0.58083762  0.48055102  0.75671476    -0.78800
C932        C  0.63374663  0.08221684  0.82056246     0.84700
O933        O  0.60242643  0.03218046  0.81431990    -0.65900
Ni934      Ni  0.94631717  0.41546518  0.74088915     1.27400
Ni935      Ni  0.95982522  0.01605874  0.77435136     1.26100
H936        H  0.98747578  0.00429209  0.82645618     0.39200
C937        C  0.72638296  0.34393160  0.71810145    -0.21100
C938        C  0.72068126  0.37310255  0.69193249    -0.09200
C939        C  0.76824527  0.42897887  0.68420154     0.29700
C940        C  0.81687559  0.45149821  0.69992501    -0.21100
C941        C  0.82087273  0.42041731  0.72427336    -0.09200
C942        C  0.77503053  0.36637412  0.73327801     0.29700
F943        F  0.77616510  0.33501287  0.75784115    -0.19700
H944        H  0.69326948  0.30349511  0.72890385     0.18100
H945        H  0.85179674  0.49369488  0.69280378     0.18100
F946        F  0.76884103  0.46403528  0.66239860    -0.19700
C947        C  0.56264991  0.38437475  0.69742132    -0.21100
C948        C  0.58965204  0.42493483  0.71984118    -0.09200
C949        C  0.64186197  0.44212150  0.72807725     0.29700
C950        C  0.66596142  0.41867248  0.71404637    -0.21100
C951        C  0.63904373  0.37728488  0.69089810    -0.09200
C952        C  0.58520079  0.35973164  0.68451975     0.29700
F953        F  0.55218374  0.31707818  0.66653003    -0.19700
H954        H  0.52178429  0.36896124  0.69065177     0.18100
H955        H  0.70440709  0.43187223  0.72350145     0.18100
F956        F  0.66870597  0.47959330  0.75083995    -0.19700
C957        C  0.55837816  0.21851837  0.74071654    -0.21100
C958        C  0.56713285  0.18065418  0.73142979    -0.09200
C959        C  0.60320013  0.19389597  0.70318474     0.29700
C960        C  0.63141621  0.24565459  0.68522389    -0.21100
C961        C  0.62284451  0.28538383  0.69364112    -0.09200
C962        C  0.58629295  0.26996872  0.72343609     0.29700
F963        F  0.58186701  0.30539350  0.73988770    -0.19700
H964        H  0.53255205  0.20970710  0.76350709     0.18100
H965        H  0.66243039  0.25545323  0.66570408     0.18100
F966        F  0.61457028  0.15872138  0.69451924    -0.19700
C967        C  0.66872268  0.28958758  0.58897948    -0.21100
C968        C  0.64021199  0.29347083  0.61690575    -0.09200
C969        C  0.58427749  0.24574935  0.62463666     0.29700
C970        C  0.56251752  0.19744452  0.60879826    -0.21100
C971        C  0.59414000  0.19439049  0.58387516    -0.09200
C972        C  0.64717707  0.24132674  0.57367473     0.29700
F973        F  0.67806545  0.24152613  0.54779662    -0.19700
H974        H  0.70781650  0.32403626  0.57699893     0.18100
H975        H  0.52065232  0.16190748  0.61646173     0.18100
F976        F  0.54902408  0.24414280  0.64730281    -0.19700
C977        C  0.74734453  0.43106041  0.59133113    -0.21100
C978        C  0.72918462  0.38908661  0.61749313    -0.09200
C979        C  0.76724226  0.37677291  0.62349649     0.29700
C980        C  0.81937901  0.40569287  0.60528064    -0.21100
C981        C  0.83475098  0.44624234  0.57977987    -0.09200
C982        C  0.79857137  0.45888269  0.57333252     0.29700
F983        F  0.81070288  0.49509268  0.54713777    -0.19700
H984        H  0.72126576  0.44062667  0.58154741     0.18100
H985        H  0.84596544  0.39352087  0.60940562     0.18100
F986        F  0.75216850  0.33298126  0.64433224    -0.19700
C987        C  0.59686028  0.34953609  0.59421759    -0.21100
C988        C  0.63722363  0.37544592  0.61811023    -0.09200
C989        C  0.65404723  0.42871517  0.62494784     0.29700
C990        C  0.63011847  0.45161694  0.61154088    -0.21100
C991        C  0.59083490  0.42569292  0.58828155    -0.09200
C992        C  0.57411847  0.37402143  0.57972004     0.29700
F993        F  0.53753991  0.34788856  0.55636898    -0.19700
H994        H  0.58348662  0.31116589  0.58483904     0.18100
H995        H  0.64511296  0.49196596  0.61867884     0.18100
F996        F  0.69599014  0.46143483  0.64353675    -0.19700
C997        C  0.89710439  0.12194894  0.81524774    -0.21100
C998        C  0.90272792  0.08713188  0.83528125    -0.09200
C999        C  0.87721222  0.07026935  0.86797905     0.29700
C1000       C  0.85296358  0.09374680  0.88156147    -0.21100
C1001       C  0.86069127  0.14007192  0.86472277    -0.09200
C1002       C  0.87428293  0.14648741  0.82937840     0.29700
F1003       F  0.86979634  0.17984649  0.80871278    -0.19700
H1004       H  0.91322632  0.13264854  0.78910800     0.18100
H1005       H  0.83183217  0.07776662  0.90633559     0.18100
F1006       F  0.87698769  0.03224291  0.88704909    -0.19700
C1007       C  0.87297219  0.27500605  0.87423333    -0.21100
C1008       C  0.88783512  0.23929471  0.86826774    -0.09200
C1009       C  0.93921805  0.26416747  0.84847500     0.29700
C1010       C  0.96616903  0.31601352  0.83111835    -0.21100
C1011       C  0.94492392  0.34590551  0.83375343    -0.09200
C1012       C  0.89974928  0.32638093  0.85667719     0.29700
F1013       F  0.87874939  0.35502666  0.86019900    -0.19700
H1014       H  0.83704075  0.26153902  0.89016776     0.18100
H1015       H  0.00229422  0.33156564  0.81399300     0.18100
F1016       F  0.96417760  0.23955629  0.84451948    -0.19700
C1017       C  0.69353773  0.07196119  0.85613276    -0.21100
C1018       C  0.68719707  0.10473503  0.83461183    -0.09200
C1019       C  0.73239549  0.15953936  0.82676580     0.29700
C1020       C  0.78196698  0.18148555  0.84117898    -0.21100
C1021       C  0.78846644  0.15113880  0.86595459    -0.09200
C1022       C  0.74299702  0.09396177  0.87101327     0.29700
F1023       F  0.74571860  0.05782847  0.88972572    -0.19700
H1024       H  0.65980345  0.02886550  0.86170382     0.18100
H1025       H  0.81553156  0.22186763  0.83057099     0.18100
F1026       F  0.72981753  0.19166594  0.80363715    -0.19700
C1027       C  0.86718562  0.14091624  0.97769411    -0.21100
C1028       C  0.87746167  0.15626892  0.94256115    -0.09200
C1029       C  0.92492086  0.16257386  0.92755467     0.29700
C1030       C  0.94516793  0.13610932  0.94236094    -0.21100
C1031       C  0.92518666  0.11020024  0.97466155    -0.09200
C1032       C  0.88965835  0.11708398  0.49336002     0.29700
F1033       F  0.87496579  0.09899713  0.52630739    -0.19700
H1034       H  0.83869610  0.14407208  0.49280962     0.18100
H1035       H  0.97643276  0.13562450  0.92837807     0.18100
F1036       F  0.95084385  0.19125335  0.89785004    -0.19700
C1037       C  0.83677469  0.23444734  0.96718757    -0.23300
C1038       C  0.86734734  0.22916848  0.94151582    -0.09200
C1039       C  0.92458357  0.27479290  0.93632194     0.29700
C1040       C  0.94607129  0.32376361  0.95143399    -0.21100
C1041       C  0.91254759  0.32926437  0.97328163    -0.09200
C1042       C  0.85780840  0.28364676  0.98148043     0.29700
F1043       F  0.82488038  0.28555788  0.50471719    -0.19700
H1044       H  0.79679908  0.20034396  0.97830260     0.18100
H1045       H  0.98922883  0.35782469  0.94566873     0.18100
F1046       F  0.96113907  0.27291489  0.91703059    -0.19700
C1047       C  0.75517248  0.08008606  0.95658485    -0.21100
C1048       C  0.77869029  0.13144684  0.93829223    -0.09200
C1049       C  0.74161037  0.14553440  0.93406417     0.29700
C1050       C  0.68982387  0.11635949  0.95203962    -0.21100
C1051       C  0.67172109  0.07122310  0.97407620    -0.09200
C1052       C  0.70343801  0.05155021  0.97518154     0.29700
F1053       F  0.68607849  0.00678379  0.49599792    -0.19700
H1054       H  0.77729470  0.06247716  0.95787436     0.18100
H1055       H  0.66554691  0.13178865  0.95064242     0.18100
F1056       F  0.75722650  0.19155458  0.91585930    -0.19700
C1057       C  0.84237993  0.67272228  0.42493671    -0.02300
C1058       C  0.84581041  0.67619672  0.38190940    -0.02300
C1059       C  0.66676412  0.85054782  0.13322759    -0.02300
C1060       C  0.66271785  0.84669980  0.17649714    -0.02300
O1061       O  0.90094607  0.89397442  0.49389740    -0.80700
O1062       O  0.52142293  0.60667958  0.06717232    -0.65400
O1063       O  0.98403867  0.00515558  0.00115302    -1.12000
C1064       C  0.57337101  0.95701529  0.07178879     1.06200
O1065       O  0.60692545  0.63440005  0.05714261    -0.78600
O1066       O  0.63957553  0.58041066  0.02552515    -0.66200
Ni1067     Ni  0.91271039  0.96321847  0.48504682     1.34900
C1068       C  0.62676319  0.55259412  0.00029671     0.84900
O1069       O  0.97001427  0.58848229  0.01147453    -0.79200
O1070       O  0.91787036  0.52864595  0.47422953    -0.89400
C1071       C  0.57279158  0.64240101  0.06899450     0.84500
O1072       O  0.87055625  0.94884640  0.02633114    -0.67600
O1073       O  0.59903447  0.50656993  0.07922223    -0.86900
C1074       C  0.88193812  0.96774900  0.05486081     0.85300
C1075       C  0.93878215  0.57376890  0.48762593     1.06900
H1076       H  0.50501931  0.50188388  0.07678755     0.38700
O1077       O  0.52763549  0.52150353  0.05604486    -1.09600
O1078       O  0.57820374  0.51018687  0.99704364    -0.66200
Ni1079     Ni  0.50896847  0.96848100  0.02500369     1.26300
O1080       O  0.93030373  0.50653912  0.06167008    -0.66500
O1081       O  0.53582956  0.93525850  0.05117162    -0.78800
C1082       C  0.93417950  0.88217784  0.48736942     0.84700
O1083       O  0.98439124  0.91393220  0.99367780    -0.65900
Ni1084     Ni  0.60090610  0.56884428  0.06769740     1.27400
Ni1085     Ni  0.99935822  0.55527457  0.03417245     1.26100
H1086       H  0.50981232  0.52652241  0.48176950     0.39200
O1087       O  0.62079312  0.61433892  0.31406370    -0.80700
O1088       O  0.90845436  0.99430153  0.24120605    -0.65400
O1089       O  0.50949899  0.53067056  0.30740810    -1.12000
C1090       C  0.55868164  0.94292705  0.23621236     1.06200
O1091       O  0.88113646  0.91001254  0.25231222    -0.78600
O1092       O  0.93468449  0.87743513  0.28296622    -0.66200
Ni1093     Ni  0.55022710  0.60026628  0.32483083     1.34900
C1094       C  0.96278292  0.89039936  0.30802926     0.84900
O1095       O  0.92652439  0.54536335  0.29729632    -0.79200
O1096       O  0.98287631  0.59150347  0.33750094    -0.89400
C1097       C  0.87290379  0.94308561  0.23961563     0.84500
O1098       O  0.56220197  0.64344253  0.28474180    -0.67600
O1099       O  0.50875768  0.91725148  0.22901481    -0.86900
C1100       C  0.54573042  0.63304106  0.25553063     0.85300
C1101       C  0.93904610  0.57299467  0.32283280     1.06900
H1102       H  0.51372306  0.51048981  0.23153178     0.38700
O1103       O  0.99402866  0.98816305  0.25231403    -1.09600
O1104       O  0.50581075  0.93846270  0.31103923    -0.66200
Ni1105     Ni  0.54727997  0.50702804  0.28319533     1.26300
O1106       O  0.50969214  0.58486767  0.24735686    -0.66500
O1107       O  0.58086811  0.98056472  0.25670333    -0.78800
C1108       C  0.63373189  0.58222158  0.32056687     0.84700
O1109       O  0.60240438  0.53218394  0.31432741    -0.65900
Ni1110     Ni  0.94631876  0.91543723  0.24090229     1.27400
Ni1111     Ni  0.95980795  0.51606964  0.27435486     1.26100
H1112       H  0.98747776  0.50433519  0.32646249     0.39200
C1113       C  0.72640015  0.84395141  0.21808688    -0.21100
C1114       C  0.72070621  0.87311659  0.19191010    -0.09200
C1115       C  0.76827358  0.92899114  0.18417645     0.29700
C1116       C  0.81690377  0.95151074  0.19990142    -0.21100
C1117       C  0.82089493  0.92043329  0.22425602    -0.09200
C1118       C  0.77504543  0.86639462  0.23326636     0.29700
F1119       F  0.77616999  0.83503903  0.25783887    -0.19700
H1120       H  0.69328032  0.80352067  0.22889440     0.18100
H1121       H  0.85182899  0.99370433  0.19277678     0.18100
F1122       F  0.76887288  0.96404567  0.16236951    -0.19700
C1123       C  0.56267589  0.88438944  0.19741039    -0.21100
C1124       C  0.58967017  0.92492879  0.21984282    -0.09200
C1125       C  0.64188179  0.94211536  0.22807502     0.29700
C1126       C  0.66598562  0.91867738  0.21403318    -0.21100
C1127       C  0.63907039  0.87730048  0.19087812    -0.09200
C1128       C  0.58523035  0.85975620  0.18449761     0.29700
F1129       F  0.55221384  0.81711339  0.16650080    -0.19700
H1130       H  0.52181289  0.86898386  0.19063967     0.18100
H1131       H  0.70443202  0.93187480  0.22348623     0.18100
F1132       F  0.66872128  0.97957250  0.25084610    -0.19700
C1133       C  0.55835404  0.71850949  0.24067232    -0.21100
C1134       C  0.56712509  0.68065321  0.23139530    -0.09200
C1135       C  0.60322323  0.69390880  0.20316447     0.29700
C1136       C  0.63144721  0.74567098  0.18520611    -0.21100
C1137       C  0.62286641  0.78539611  0.19361754    -0.09200
C1138       C  0.58628724  0.76996804  0.22340035     0.29700
F1139       F  0.58185112  0.80538582  0.23985257    -0.19700
H1140       H  0.53250762  0.70968918  0.26345452     0.18100
H1141       H  0.66247310  0.75547630  0.16569296     0.18100
F1142       F  0.61461175  0.65874334  0.19451081    -0.19700
C1143       C  0.66873422  0.78958388  0.08896531    -0.21100
C1144       C  0.64022920  0.79347938  0.11688918    -0.09200
C1145       C  0.58429219  0.74576417  0.12462349     0.29700
C1146       C  0.56252398  0.69745435  0.10879062    -0.21100
C1147       C  0.59413961  0.69438835  0.08386955    -0.09200
C1148       C  0.64717872  0.74131768  0.07366483     0.29700
F1149       F  0.67805907  0.74150479  0.04778693    -0.19700
H1150       H  0.70783022  0.82402622  0.07698316     0.18100
H1151       H  0.52065717  0.66192261  0.11645689     0.18100
F1152       F  0.54904284  0.74416788  0.14728729    -0.19700
C1153       C  0.74736155  0.93105863  0.09129776    -0.21100
C1154       C  0.72920914  0.88909567  0.11746623    -0.09200
C1155       C  0.76727033  0.87678611  0.12346918     0.29700
C1156       C  0.81940567  0.90570478  0.10524969    -0.21100
C1157       C  0.83476994  0.94624420  0.07974266    -0.09200
C1158       C  0.79858264  0.95887337  0.07329236     0.29700
F1159       F  0.81070265  0.99506768  0.04709036    -0.19700
H1160       H  0.72127925  0.94062058  0.08151435     0.18100
H1161       H  0.84599666  0.89353911  0.10937732     0.18100
F1162       F  0.75220129  0.83299962  0.14430849    -0.19700
C1163       C  0.59688708  0.84955164  0.09419619    -0.21100
C1164       C  0.63725116  0.87546120  0.11808845    -0.09200
C1165       C  0.65407877  0.92873240  0.12492465     0.29700
C1166       C  0.63015546  0.95163821  0.11151426    -0.21100
C1167       C  0.59087180  0.92571437  0.08825496    -0.09200
C1168       C  0.57414794  0.87403885  0.07969753     0.29700
F1169       F  0.53756580  0.84790444  0.05634844    -0.19700
H1170       H  0.58351064  0.81117983  0.08481891     0.18100
H1171       H  0.64515159  0.99198845  0.11865066     0.18100
F1172       F  0.69601750  0.96144799  0.14351733    -0.19700
C1173       C  0.89709328  0.62197737  0.31524781    -0.21100
C1174       C  0.90272065  0.58715748  0.33527429    -0.09200
C1175       C  0.87719872  0.57027670  0.36797074     0.29700
C1176       C  0.85294050  0.59374106  0.38156042    -0.21100
C1177       C  0.86066596  0.64007009  0.36473040    -0.09200
C1178       C  0.87426290  0.64650260  0.32938546     0.29700
F1179       F  0.86977599  0.67986818  0.30872674    -0.19700
H1180       H  0.91321901  0.63268945  0.28910868     0.18100
H1181       H  0.83180885  0.57775254  0.40633430     0.18100
F1182       F  0.87698286  0.53224966  0.38703343    -0.19700
C1183       C  0.87294659  0.77499810  0.37424820    -0.21100
C1184       C  0.88781208  0.73928791  0.36828715    -0.09200
C1185       C  0.93920340  0.76416399  0.34850305     0.29700
C1186       C  0.96616371  0.81601408  0.33114986    -0.21100
C1187       C  0.94491398  0.84590296  0.33377470    -0.09200
C1188       C  0.89972459  0.82637121  0.35668829     0.29700
F1189       F  0.87871335  0.85500870  0.36019663    -0.19700
H1190       H  0.83700782  0.76152647  0.39017732     0.18100
H1191       H  0.00229699  0.83156877  0.31403162     0.18100
F1192       F  0.96416254  0.73955150  0.34455287    -0.19700
C1193       C  0.69351253  0.57195784  0.35614517    -0.21100
C1194       C  0.68717713  0.60473399  0.33462224    -0.09200
C1195       C  0.73237742  0.65953810  0.32677879     0.29700
C1196       C  0.78194532  0.68148147  0.34119502    -0.21100
C1197       C  0.78844035  0.65113300  0.36597181    -0.09200
C1198       C  0.74296937  0.59395645  0.37102914     0.29700
F1199       F  0.74568925  0.55782183  0.38974156    -0.19700
H1200       H  0.65977701  0.52886215  0.36171422     0.18100
H1201       H  0.81551218  0.72186186  0.33058626     0.18100
F1202       F  0.72980567  0.69166737  0.30364866    -0.19700
C1203       C  0.86715672  0.64090488  0.47771421    -0.21100
C1204       C  0.87742753  0.65624359  0.44257904    -0.09200
C1205       C  0.92487751  0.66253111  0.42757355     0.29700
C1206       C  0.94511647  0.63606240  0.44238426    -0.21100
C1207       C  0.92513882  0.61016729  0.47468792    -0.09200
C1208       C  0.88962479  0.61707122  0.99338502     0.29700
F1209       F  0.87494504  0.59900757  0.02633612    -0.19700
H1210       H  0.83867566  0.64407445  0.99282807     0.18100
H1211       H  0.97637455  0.63556555  0.42840286     0.18100
F1212       F  0.95080450  0.69120380  0.39786799    -0.19700
C1213       C  0.83676593  0.73445338  0.46719435    -0.23300
C1214       C  0.86733178  0.72915578  0.44152891    -0.09200
C1215       C  0.92457272  0.77476862  0.43633445     0.29700
C1216       C  0.94607407  0.82374684  0.45143947    -0.21100
C1217       C  0.91255909  0.82926814  0.47327970    -0.09200
C1218       C  0.85781423  0.78366147  0.48148043     0.29700
F1219       F  0.82489301  0.78559322  0.00471078    -0.19700
H1220       H  0.79678470  0.70036004  0.47830859     0.18100
H1221       H  0.98923489  0.85779848  0.44567310     0.18100
F1222       F  0.96111993  0.77287232  0.41704824    -0.19700
C1223       C  0.75514811  0.58007032  0.45660379    -0.21100
C1224       C  0.77866372  0.63143169  0.43831199    -0.09200
C1225       C  0.74158191  0.64551711  0.43408707     0.29700
C1226       C  0.68979575  0.61633940  0.45206480    -0.21100
C1227       C  0.67169629  0.57120309  0.47410130    -0.09200
C1228       C  0.70341699  0.55153430  0.47520454     0.29700
F1229       F  0.68606360  0.50677000  0.99602123    -0.19700
H1230       H  0.77727081  0.56246146  0.45788981     0.18100
H1231       H  0.66551642  0.63176603  0.45066923     0.18100
F1232       F  0.75719620  0.69153689  0.41588205    -0.19700
C1233       C  0.84237992  0.67272227  0.92493666    -0.02300
C1234       C  0.84581039  0.67619670  0.88190936    -0.02300
C1235       C  0.66676407  0.85054780  0.63322759    -0.02300
C1236       C  0.66271785  0.84669981  0.67649715    -0.02300
O1237       O  0.90094598  0.89397442  0.99389729    -0.80700
O1238       O  0.52142294  0.60667963  0.56717224    -0.65400
O1239       O  0.98403881  0.00515564  0.50115301    -1.12000
C1240       C  0.57337112  0.95701538  0.57178876     1.06200
O1241       O  0.60692538  0.63439997  0.55714257    -0.78600
O1242       O  0.63957550  0.58041054  0.52552518    -0.66200
Ni1243     Ni  0.91271028  0.96321847  0.98504680     1.34900
C1244       C  0.62676321  0.55259406  0.50029669     0.84900
O1245       O  0.97001440  0.58848247  0.51147446    -0.79200
O1246       O  0.91787024  0.52864586  0.97422953    -0.89400
C1247       C  0.57279157  0.64240098  0.56899447     0.84500
O1248       O  0.87055628  0.94884638  0.52633113    -0.67600
O1249       O  0.59903441  0.50656989  0.57922235    -0.86900
C1250       C  0.88193809  0.96774898  0.55486080     0.85300
C1251       C  0.93878209  0.57376882  0.98762596     1.06900
H1252       H  0.50501873  0.50188334  0.57678800     0.38700
O1253       O  0.52763540  0.52150344  0.55604490    -1.09600
O1254       O  0.57820379  0.51018684  0.49704357    -0.66200
Ni1255     Ni  0.50896847  0.96848099  0.52500373     1.26300
O1256       O  0.93030375  0.50653932  0.56167000    -0.66500
O1257       O  0.53582947  0.93525846  0.55117172    -0.78800
C1258       C  0.93417943  0.88217783  0.98736937     0.84700
O1259       O  0.98439128  0.91393218  0.49367787    -0.65900
Ni1260     Ni  0.60090600  0.56884421  0.56769745     1.27400
Ni1261     Ni  0.99935825  0.55527460  0.53417242     1.26100
H1262       H  0.50981244  0.52652261  0.98176946     0.39200
O1263       O  0.62079309  0.61433886  0.81406365    -0.80700
O1264       O  0.90845438  0.99430155  0.74120612    -0.65400
O1265       O  0.50949904  0.53067056  0.80740809    -1.12000
C1266       C  0.55868172  0.94292711  0.73621234     1.06200
O1267       O  0.88113647  0.91001256  0.75231233    -0.78600
O1268       O  0.93468457  0.87743504  0.78296615    -0.66200
Ni1269     Ni  0.55022710  0.60026624  0.82483083     1.34900
C1270       C  0.96278287  0.89039930  0.80802924     0.84900
O1271       O  0.92652435  0.54536335  0.79729627    -0.79200
O1272       O  0.98287625  0.59150339  0.83750090    -0.89400
C1273       C  0.87290376  0.94308563  0.73961576     0.84500
O1274       O  0.56220200  0.64344250  0.78474178    -0.67600
O1275       O  0.50875777  0.91725157  0.72901475    -0.86900
C1276       C  0.54573037  0.63304109  0.75553062     0.85300
C1277       C  0.93904603  0.57299461  0.82283277     1.06900
H1278       H  0.51372318  0.51048976  0.73153188     0.38700
O1279       O  0.99402875  0.98816305  0.75231399    -1.09600
O1280       O  0.50581062  0.93846267  0.81103926    -0.66200
Ni1281     Ni  0.54727999  0.50702800  0.78319535     1.26300
O1282       O  0.50969218  0.58486770  0.74735680    -0.66500
O1283       O  0.58086818  0.98056473  0.75670337    -0.78800
C1284       C  0.63373188  0.58222156  0.82056688     0.84700
O1285       O  0.60240445  0.53218392  0.81432742    -0.65900
Ni1286     Ni  0.94631879  0.91543723  0.74090226     1.27400
Ni1287     Ni  0.95980798  0.51606967  0.77435486     1.26100
H1288       H  0.98747793  0.50433534  0.82646235     0.39200
C1289       C  0.72640028  0.84395138  0.71808684    -0.21100
C1290       C  0.72070627  0.87311656  0.69191008    -0.09200
C1291       C  0.76827363  0.92899110  0.68417645     0.29700
C1292       C  0.81690383  0.95151076  0.69990144    -0.21100
C1293       C  0.82089499  0.92043330  0.72425605    -0.09200
C1294       C  0.77504553  0.86639461  0.73326636     0.29700
F1295       F  0.77617005  0.83503907  0.75783895    -0.19700
H1296       H  0.69328045  0.80352066  0.72889436     0.18100
H1297       H  0.85182899  0.99370441  0.69277692     0.18100
F1298       F  0.76887270  0.96404565  0.66236967    -0.19700
C1299       C  0.56267580  0.88438933  0.69741049    -0.21100
C1300       C  0.58967015  0.92492874  0.71984285    -0.09200
C1301       C  0.64188177  0.94211536  0.72807499     0.29700
C1302       C  0.66598563  0.91867740  0.71403315    -0.21100
C1303       C  0.63907037  0.87730048  0.69087813    -0.09200
C1304       C  0.58523035  0.85975621  0.68449764     0.29700
F1305       F  0.55221380  0.81711327  0.66650093    -0.19700
H1306       H  0.52181274  0.86898368  0.69063983     0.18100
H1307       H  0.70443206  0.93187484  0.72348617     0.18100
F1308       F  0.66872120  0.97957253  0.75084605    -0.19700
C1309       C  0.55835418  0.71850966  0.74067241    -0.21100
C1310       C  0.56712496  0.68065325  0.73139529    -0.09200
C1311       C  0.60322303  0.69390881  0.70316446     0.29700
C1312       C  0.63144723  0.74567104  0.68520616    -0.21100
C1313       C  0.62286644  0.78539616  0.69361758    -0.09200
C1314       C  0.58628728  0.76996813  0.72340039     0.29700
F1315       F  0.58185096  0.80538580  0.73985262    -0.19700
H1316       H  0.53250792  0.70968946  0.76345468     0.18100
H1317       H  0.66247323  0.75547635  0.66569308     0.18100
F1318       F  0.61461171  0.65874346  0.69451094    -0.19700
C1319       C  0.66873414  0.78958395  0.58896524    -0.21100
C1320       C  0.64022919  0.79347938  0.61688917    -0.09200
C1321       C  0.58429222  0.74576413  0.62462347     0.29700
C1322       C  0.56252399  0.69745428  0.60879062    -0.21100
C1323       C  0.59413965  0.69438828  0.58386960    -0.09200
C1324       C  0.64717871  0.74131768  0.57366486     0.29700
F1325       F  0.67805914  0.74150473  0.54778707    -0.19700
H1326       H  0.70783010  0.82402634  0.57698305     0.18100
H1327       H  0.52065716  0.66192255  0.61645684     0.18100
F1328       F  0.54904289  0.74416786  0.64728724    -0.19700
C1329       C  0.74736149  0.93105865  0.59129781    -0.21100
C1330       C  0.72920910  0.88909566  0.61746626    -0.09200
C1331       C  0.76727030  0.87678613  0.62346918     0.29700
C1332       C  0.81940572  0.90570499  0.60524977    -0.21100
C1333       C  0.83476985  0.94624423  0.57974263    -0.09200
C1334       C  0.79858250  0.95887330  0.57329232     0.29700
F1335       F  0.81070240  0.99506758  0.54709031    -0.19700
H1336       H  0.72127920  0.94062061  0.58151440     0.18100
H1337       H  0.84599685  0.89353950  0.60937746     0.18100
F1338       F  0.75220132  0.83299957  0.64430841    -0.19700
C1339       C  0.59688704  0.84955165  0.59419618    -0.21100
C1340       C  0.63725110  0.87546119  0.61808845    -0.09200
C1341       C  0.65407877  0.92873238  0.62492464     0.29700
C1342       C  0.63015541  0.95163819  0.61151433    -0.21100
C1343       C  0.59087194  0.92571448  0.58825490    -0.09200
C1344       C  0.57414809  0.87403899  0.57969744     0.29700
F1345       F  0.53756594  0.84790451  0.55634837    -0.19700
H1346       H  0.58351041  0.81117974  0.58481897     0.18100
H1347       H  0.64515146  0.99198837  0.61865083     0.18100
F1348       F  0.69601758  0.96144797  0.64351725    -0.19700
C1349       C  0.89709311  0.62197720  0.81524781    -0.21100
C1350       C  0.90272056  0.58715737  0.83527431    -0.09200
C1351       C  0.87719876  0.57027667  0.86797082     0.29700
C1352       C  0.85294052  0.59374104  0.88156048    -0.21100
C1353       C  0.86066596  0.64007006  0.86473041    -0.09200
C1354       C  0.87426288  0.64650253  0.82938546     0.29700
F1355       F  0.86977605  0.67986814  0.80872669    -0.19700
H1356       H  0.91321877  0.63268924  0.78910868     0.18100
H1357       H  0.83180886  0.57775250  0.90633435     0.18100
F1358       F  0.87698293  0.53224965  0.88703354    -0.19700
C1359       C  0.87294648  0.77499803  0.87424812    -0.21100
C1360       C  0.88781201  0.73928787  0.86828709    -0.09200
C1361       C  0.93920330  0.76416396  0.84850298     0.29700
C1362       C  0.96616363  0.81601401  0.83114977    -0.21100
C1363       C  0.94491395  0.84590293  0.83377467    -0.09200
C1364       C  0.89972457  0.82637117  0.85668827     0.29700
F1365       F  0.87871343  0.85500872  0.86019676    -0.19700
H1366       H  0.83700770  0.76152643  0.89017722     0.18100
H1367       H  0.00229688  0.83156868  0.81403151     0.18100
F1368       F  0.96416237  0.73955143  0.84455279    -0.19700
C1369       C  0.69351238  0.57195789  0.85614532    -0.21100
C1370       C  0.68717703  0.60473402  0.83462234    -0.09200
C1371       C  0.73237744  0.65953807  0.82677874     0.29700
C1372       C  0.78194534  0.68148143  0.84119492    -0.21100
C1373       C  0.78844036  0.65113299  0.86597175    -0.09200
C1374       C  0.74296936  0.59395643  0.87102911     0.29700
F1375       F  0.74568933  0.55782181  0.88974145    -0.19700
H1376       H  0.65977680  0.52886224  0.86171443     0.18100
H1377       H  0.81551221  0.72186176  0.83058610     0.18100
F1378       F  0.72980573  0.69166731  0.80364856    -0.19700
C1379       C  0.86715671  0.64090486  0.97771414    -0.21100
C1380       C  0.87742758  0.65624360  0.94257897    -0.09200
C1381       C  0.92487771  0.66253127  0.92757355     0.29700
C1382       C  0.94511676  0.63606268  0.94238434    -0.21100
C1383       C  0.92513898  0.61016745  0.97468795    -0.09200
C1384       C  0.88962462  0.61707104  0.49338505     0.29700
F1385       F  0.87494487  0.59900749  0.52633618    -0.19700
H1386       H  0.83867580  0.64407461  0.49282820     0.18100
H1387       H  0.97637487  0.63556580  0.92840301     0.18100
F1388       F  0.95080460  0.69120378  0.89786792    -0.19700
C1389       C  0.83676598  0.73445335  0.96719440    -0.23300
C1390       C  0.86733176  0.72915578  0.94152888    -0.09200
C1391       C  0.92457265  0.77476865  0.93633439     0.29700
C1392       C  0.94607399  0.82374687  0.95143941    -0.21100
C1393       C  0.91255906  0.82926811  0.97327973    -0.09200
C1394       C  0.85781422  0.78366147  0.98148048     0.29700
F1395       F  0.82489302  0.78559318  0.50471074    -0.19700
H1396       H  0.79678477  0.70035997  0.97830865     0.18100
H1397       H  0.98923478  0.85779853  0.94567301     0.18100
F1398       F  0.96111994  0.77287223  0.91704836    -0.19700
C1399       C  0.75514808  0.58007032  0.95660372    -0.21100
C1400       C  0.77866371  0.63143170  0.93831191    -0.09200
C1401       C  0.74158194  0.64551722  0.93408706     0.29700
C1402       C  0.68979589  0.61633961  0.95206491    -0.21100
C1403       C  0.67169632  0.57120318  0.97410134    -0.09200
C1404       C  0.70341703  0.55153437  0.97520456     0.29700
F1405       F  0.68606356  0.50677002  0.49602129    -0.19700
H1406       H  0.77727072  0.56246139  0.95788970     0.18100
H1407       H  0.66551673  0.63176644  0.95066941     0.18100
F1408       F  0.75719623  0.69153714  0.91588221    -0.19700
loop_ 
_geom_bond_atom_site_label_1 
_geom_bond_atom_site_label_2 
_geom_bond_distance 
_geom_bond_site_symmetry_2 
_ccdc_geom_bond_type 
C1            C2   1.716       .  S
C1          C148   1.597       .  S
C1          C158   1.600       .  S
C1          C168   1.595       .  S
C2          C121   1.582       .  S
C2          C128   1.596       .  S
C2          C141   1.603       .  S
C3            C4   1.725       .  S
C3           C88   1.604       .  S
C3           C98   1.591       .  S
C3          C108   1.600       .  S
C4           C58   1.603       .  S
C4           C71   1.583       .  S
C4           C81   1.596       .  S
O5          Ni11   1.931       .  S
O5           C26   1.272       .  A
O6         Ni733   1.910   1_455  S
O6           C15   1.268       .  A
O7         Ni187   1.903   1_554  S
O7         Ni381   1.915       .  S
O7         Ni727   1.926       .  S
O7         H1262   0.966   1_554  S
C8           O25   1.284       .  A
C8          O369   1.277       .  A
C8          C111   1.485       .  S
O9          Ni28   1.920       .  S
O9           C15   1.270       .  A
O10         Ni28   1.902       .  S
O10          C12   1.266       .  A
Ni11        O366   1.933       .  S
Ni11        O192   1.904       .  S
Ni11        O183   1.903       .  S
C12          O22   1.271   1_554  A
C12         C347   1.472   1_554  S
O13         Ni29   1.925       .  S
O13         C195   1.273   1_554  A
O14        Ni363   1.933   1_545  S
O14          C19   1.278       .  A
C15          C91   1.474       .  S
O16        Ni187   1.904   1_554  S
O16          C18   1.268       .  A
O17         Ni28   1.900       .  S
O17         C360   1.277   1_545  A
C18         O376   1.272       .  A
C18         C101   1.469       .  S
C19         O189   1.273       .  A
C19         C151   1.478       .  S
H20          O21   0.967       .  S
O21         Ni28   1.886       .  S
O21        Ni733   1.897   1_455  S
O21        Ni375   1.900   1_545  S
O22        Ni375   1.937   1_546  S
Ni23         O25   1.938       .  S
Ni23        O374   1.937   1_554  S
Ni23        O731   1.916   1_454  S
Ni23        O711   1.926   1_455  S
Ni23        O373   1.900       .  S
O24         Ni29   1.933       .  S
O24         C370   1.272   1_545  A
C26         O203   1.270       .  A
C26         C161   1.481       .  S
O27        Ni727   1.916   1_556  S
O27         C202   1.270       .  A
Ni29        O710   1.910       .  S
Ni29        O359   1.915       .  S
Ni29        O725   1.897       .  S
H30        O1239   0.966   1_455  S
O31         Ni37   1.932       .  S
O31          C52   1.273       .  A
O32        Ni407   1.912       .  S
O32          C41   1.269       .  A
O33         Ni37   1.894       .  S
O33         Ni49   1.921       .  S
O33        Ni759   1.910   1_455  S
O33         H760   0.967   1_455  S
C34          O51   1.284       .  A
C34          O43   1.276       .  A
C34          C68   1.480       .  S
O35         Ni54   1.909       .  S
O35          C41   1.266       .  A
O36         Ni54   1.898       .  S
O36          C38   1.265       .  A
Ni37         O42   1.909       .  S
Ni37        O744   1.929   1_455  S
C38         O752   1.270       .  A
C38         C131   1.467       .  S
O39         Ni55   1.923       .  S
O39          C45   1.274       .  A
O40        Ni741   1.929       .  S
O40          C45   1.277       .  A
C41          C61   1.471       .  S
O42          C44   1.270       .  A
O43        Ni758   1.893   1_455  S
C44          O50   1.271       .  A
C44          C78   1.471       .  S
C45         C118   1.473       .  S
H46        O1103   0.967   1_445  S
O47         Ni54   1.880       .  S
O47        Ni407   1.894       .  S
O47       Ni1105   1.897       .  S
O47        H1102   0.967       .  S
O48        Ni401   1.933       .  S
O48         C742   1.270   1_455  A
Ni49         O53   1.917       .  S
Ni49        O400   1.933   1_545  S
Ni49        O403   1.934   1_545  S
Ni49       O1103   1.897   1_445  S
O50        Ni759   1.932   1_455  S
O51        Ni401   1.935       .  S
C52          O53   1.271       .  A
C52         C138   1.483       .  S
Ni54        O747   1.893       .  S
Ni55        O384   1.912   1_545  S
Ni55        O754   1.932       .  S
Ni55        O737   1.910       .  S
Ni55        O399   1.894   1_545  S
H56         O737   0.967       .  S
C57          C58   1.429       .  A
C57          C62   1.387       .  A
C57          H64   1.074       .  S
C58          C59   1.436       .  A
C59          C60   1.397       .  A
C59          F66   1.342       .  S
C60          C61   1.390       .  A
C60          H65   1.084       .  S
C61          C62   1.396       .  A
C62          F63   1.359       .  S
C67          C68   1.399       .  A
C67          C72   1.379       .  A
C67          H74   1.083       .  S
C68          C69   1.399       .  A
C69          C70   1.403       .  A
C69          F76   1.358       .  S
C70          C71   1.433       .  A
C70          H75   1.075       .  S
C71          C72   1.420       .  A
C72          F73   1.343       .  S
C77          C78   1.387       .  A
C77          C82   1.389       .  A
C77          H84   1.085       .  S
C78          C79   1.398       .  A
C79          C80   1.407       .  A
C79          F86   1.357       .  S
C80          C81   1.428       .  A
C80          H85   1.076       .  S
C81          C82   1.441       .  A
C82          F83   1.355       .  S
C87          C88   1.431       .  A
C87          C92   1.389       .  A
C87          H94   1.076       .  S
C88          C89   1.434       .  A
C89          C90   1.400       .  A
C89          F96   1.343       .  S
C90          C91   1.393       .  A
C90          H95   1.084       .  S
C91          C92   1.395       .  A
C92          F93   1.359       .  S
C97          C98   1.426       .  A
C97         C102   1.386       .  A
C97         H104   1.074       .  S
C98          C99   1.434       .  A
C99         C100   1.407       .  A
C99         F106   1.354       .  S
C100        C101   1.398       .  A
C100        H105   1.083       .  S
C101        C102   1.390       .  A
C102        F103   1.356       .  S
C107        C108   1.433       .  A
C107        C112   1.407       .  A
C107        H114   1.075       .  S
C108        C109   1.425       .  A
C109        C110   1.380       .  A
C109        F116   1.342       .  S
C110        C111   1.397       .  A
C110        H115   1.083       .  S
C111        C112   1.400       .  A
C112        F113   1.357       .  S
C117        C118   1.398       .  A
C117        C122   1.401       .  A
C117        H124   1.084       .  S
C118        C119   1.397       .  A
C119        C120   1.400       .  A
C119        F126   1.357       .  S
C120        C121   1.419       .  A
C120        H125   1.077       .  S
C121        C122   1.427       .  A
C122        F123   1.357       .  S
C127        C128   1.426       .  A
C127        C132   1.395       .  A
C127        H134   1.067       .  S
C128        C129   1.432       .  A
C129        C130   1.402       .  A
C129        F136   1.352       .  S
C130        C131   1.396       .  A
C130        H135   1.084       .  S
C131        C132   1.390       .  A
C132        F133   1.358       .  S
C137        C138   1.396       .  A
C137        C142   1.402       .  A
C137        H144   1.083       .  S
C138        C139   1.398       .  A
C139        C140   1.396       .  A
C139        F146   1.358       .  S
C140        C141   1.427       .  A
C140        H145   1.074       .  S
C141        C142   1.435       .  A
C142        F143   1.351       .  S
C147        C148   1.424       .  A
C147        C328   1.404       .  A
C147        H330   1.082       .  S
C148        C149   1.428       .  A
C149        C150   1.399       .  A
C149        F156   1.343       .  S
C150        C151   1.392       .  A
C150        H155   1.084       .  S
C151        C328   1.401       .  A
C152        C323   1.404       .  A
C152        C327   1.401       .  A
C152        F153   1.355   1_556  S
H154        C323   1.082       .  S
C157        C158   1.427       .  A
C157        C162   1.395       .  A
C157        H164   1.075       .  S
C158        C159   1.432       .  A
C159        C160   1.403       .  A
C159        F166   1.349       .  S
C160        C161   1.396       .  A
C160        H165   1.083       .  S
C161        C162   1.397       .  A
C162        F339   1.358       .  S
F163        C338   1.358   1_554  S
C167        C168   1.422       .  A
C167        C172   1.406       .  A
C167        H174   1.079       .  S
C168        C169   1.433       .  A
C169        C170   1.395       .  A
C169        F176   1.347       .  S
C170        C171   1.388       .  A
C170        H175   1.084       .  S
C171        C188   1.472       .  S
C171        C172   1.402       .  A
C172        F349   1.358       .  S
F173        C348   1.358       .  S
C177        C178   1.716       .  S
C177        C324   1.597       .  S
C177        C334   1.600       .  S
C177        C344   1.595       .  S
C178        C297   1.582       .  S
C178        C304   1.596       .  S
C178        C317   1.603       .  S
C179        C180   1.725       .  S
C179        C264   1.604       .  S
C179        C274   1.591       .  S
C179        C284   1.600       .  S
C180        C234   1.603       .  S
C180        C247   1.583       .  S
C180        C257   1.596       .  S
O181       Ni187   1.931       .  S
O181        C202   1.272       .  A
O182       Ni909   1.910   1_455  S
O182        C191   1.268       .  A
O183       Ni557   1.915       .  S
O183       Ni903   1.926       .  S
O183       H1086   0.966       .  S
C184        O201   1.284       .  A
C184        O545   1.277       .  A
C184        C287   1.485       .  S
O185       Ni204   1.920       .  S
O185        C191   1.270       .  A
O186       Ni204   1.902       .  S
O186        C188   1.266       .  A
Ni187       O542   1.933       .  S
C188        O198   1.271       .  A
O189       Ni205   1.925       .  S
O190       Ni539   1.933   1_545  S
O190        C195   1.278       .  A
C191        C267   1.474       .  S
O192        C194   1.268       .  A
O193       Ni204   1.900       .  S
O193        C536   1.277   1_545  A
C194        O552   1.272       .  A
C194        C277   1.469       .  S
C195        C327   1.478       .  S
H196        O197   0.967       .  S
O197       Ni909   1.897   1_455  S
O197       Ni551   1.900   1_545  S
O197       Ni204   1.886       .  S
O198       Ni551   1.937   1_545  S
Ni199       O550   1.937       .  S
Ni199       O907   1.916   1_455  S
Ni199       O201   1.938       .  S
Ni199       O887   1.926   1_455  S
Ni199       O549   1.900       .  S
O200       Ni205   1.933       .  S
O200        C546   1.272   1_545  A
C202        C337   1.481       .  S
O203       Ni903   1.916       .  S
Ni205       O886   1.910       .  S
Ni205       O535   1.915       .  S
Ni205       O901   1.897       .  S
H206       O1063   0.966   1_456  S
O207       Ni213   1.932       .  S
O207        C228   1.273       .  A
O208       Ni583   1.912       .  S
O208        C217   1.269       .  A
O209       Ni213   1.894       .  S
O209       Ni935   1.910   1_455  S
O209       Ni225   1.921       .  S
O209        H936   0.967   1_455  S
C210        O227   1.284       .  A
C210        O219   1.276       .  A
C210        C244   1.480       .  S
O211       Ni230   1.909       .  S
O211        C217   1.266       .  A
O212       Ni230   1.898       .  S
O212        C214   1.265       .  A
Ni213       O920   1.929   1_455  S
Ni213       O218   1.909       .  S
C214        O928   1.270       .  A
C214        C307   1.467       .  S
O215       Ni231   1.923       .  S
O215        C221   1.274       .  A
O216       Ni917   1.929       .  S
O216        C221   1.277       .  A
C217        C237   1.471       .  S
O218        C220   1.270       .  A
O219       Ni934   1.893   1_455  S
C220        O226   1.271       .  A
C220        C254   1.471       .  S
C221        C294   1.473       .  S
H222       O1279   0.967   1_445  S
O223       Ni583   1.894       .  S
O223      Ni1281   1.897       .  S
O223       Ni230   1.880       .  S
O223       H1278   0.967       .  S
O224       Ni577   1.933       .  S
O224        C918   1.270   1_455  A
Ni225       O576   1.933   1_545  S
Ni225       O229   1.917       .  S
Ni225       O579   1.934   1_545  S
Ni225      O1279   1.897   1_445  S
O226       Ni935   1.932   1_455  S
O227       Ni577   1.935       .  S
C228        O229   1.271       .  A
C228        C314   1.483       .  S
Ni230       O923   1.893       .  S
Ni231       O560   1.912   1_545  S
Ni231       O930   1.932       .  S
Ni231       O913   1.910       .  S
Ni231       O575   1.894   1_545  S
H232        O913   0.967       .  S
C233        C234   1.429       .  A
C233        C238   1.387       .  A
C233        H240   1.074       .  S
C234        C235   1.436       .  A
C235        C236   1.397       .  A
C235        F242   1.342       .  S
C236        C237   1.390       .  A
C236        H241   1.084       .  S
C237        C238   1.396       .  A
C238        F239   1.359       .  S
C243        C244   1.399       .  A
C243        C248   1.379       .  A
C243        H250   1.083       .  S
C244        C245   1.399       .  A
C245        C246   1.403       .  A
C245        F252   1.358       .  S
C246        C247   1.433       .  A
C246        H251   1.075       .  S
C247        C248   1.420       .  A
C248        F249   1.343       .  S
C253        C254   1.387       .  A
C253        C258   1.389       .  A
C253        H260   1.085       .  S
C254        C255   1.398       .  A
C255        C256   1.407       .  A
C255        F262   1.357       .  S
C256        C257   1.428       .  A
C256        H261   1.076       .  S
C257        C258   1.441       .  A
C258        F259   1.355       .  S
C263        C264   1.431       .  A
C263        C268   1.389       .  A
C263        H270   1.076       .  S
C264        C265   1.434       .  A
C265        C266   1.400       .  A
C265        F272   1.343       .  S
C266        C267   1.393       .  A
C266        H271   1.084       .  S
C267        C268   1.395       .  A
C268        F269   1.359       .  S
C273        C274   1.426       .  A
C273        C278   1.386       .  A
C273        H280   1.074       .  S
C274        C275   1.434       .  A
C275        C276   1.407       .  A
C275        F282   1.354       .  S
C276        C277   1.398       .  A
C276        H281   1.083       .  S
C277        C278   1.390       .  A
C278        F279   1.356       .  S
C283        C284   1.433       .  A
C283        C288   1.407       .  A
C283        H290   1.075       .  S
C284        C285   1.425       .  A
C285        C286   1.380       .  A
C285        F292   1.342       .  S
C286        C287   1.397       .  A
C286        H291   1.083       .  S
C287        C288   1.400       .  A
C288        F289   1.357       .  S
C293        C294   1.398       .  A
C293        C298   1.401       .  A
C293        H300   1.084       .  S
C294        C295   1.397       .  A
C295        C296   1.400       .  A
C295        F302   1.357       .  S
C296        C297   1.419       .  A
C296        H301   1.077       .  S
C297        C298   1.427       .  A
C298        F299   1.357       .  S
C303        C304   1.426       .  A
C303        C308   1.395       .  A
C303        H310   1.067       .  S
C304        C305   1.432       .  A
C305        C306   1.402       .  A
C305        F312   1.352       .  S
C306        C307   1.396       .  A
C306        H311   1.084       .  S
C307        C308   1.390       .  A
C308        F309   1.358       .  S
C313        C314   1.396       .  A
C313        C318   1.402       .  A
C313        H320   1.083       .  S
C314        C315   1.398       .  A
C315        C316   1.396       .  A
C315        F322   1.358       .  S
C316        C317   1.427       .  A
C316        H321   1.074       .  S
C317        C318   1.435       .  A
C318        F319   1.351       .  S
C323        C324   1.424       .  A
C324        C325   1.428       .  A
C325        C326   1.399       .  A
C325        F332   1.343       .  S
C326        C327   1.392       .  A
C326        H331   1.084       .  S
C328        F329   1.355       .  S
C333        C334   1.427       .  A
C333        C338   1.395       .  A
C333        H340   1.075       .  S
C334        C335   1.432       .  A
C335        C336   1.403       .  A
C335        F342   1.349       .  S
C336        C337   1.396       .  A
C336        H341   1.083       .  S
C337        C338   1.397       .  A
C343        C344   1.422       .  A
C343        C348   1.406       .  A
C343        H350   1.079       .  S
C344        C345   1.433       .  A
C345        C346   1.395       .  A
C345        F352   1.347       .  S
C346        C347   1.388       .  A
C346        H351   1.084       .  S
C347        C348   1.402       .  A
C353        C354   1.716       .  S
C353        C500   1.597       .  S
C353        C510   1.600       .  S
C353        C520   1.595       .  S
C354        C473   1.582       .  S
C354        C480   1.596       .  S
C354        C493   1.603       .  S
C355        C356   1.725       .  S
C355        C440   1.604       .  S
C355        C450   1.591       .  S
C355        C460   1.600       .  S
C356        C410   1.603       .  S
C356        C423   1.583       .  S
C356        C433   1.596       .  S
O357       Ni363   1.931       .  S
O357        C378   1.272       .  A
O358      Ni1085   1.910   1_455  S
O358        C367   1.268       .  A
O359       Ni539   1.903   1_544  S
O359      Ni1079   1.926   1_545  S
O359        H910   0.966   1_554  S
C360        O377   1.284       .  A
C360        C463   1.485       .  S
O361       Ni380   1.920       .  S
O361        C367   1.270       .  A
O362       Ni380   1.902       .  S
O362        C364   1.266       .  A
Ni363       O544   1.904       .  S
Ni363       O535   1.903   1_565  S
C364        O374   1.271   1_554  A
C364        C699   1.472   1_554  S
O365       Ni381   1.925       .  S
O365        C547   1.273   1_554  A
O366        C371   1.278       .  A
C367        C443   1.474       .  S
O368       Ni539   1.904   1_554  S
O368        C370   1.268       .  A
O369       Ni380   1.900       .  S
C370        C453   1.469       .  S
C371        O541   1.273       .  A
C371        C503   1.478       .  S
H372        O373   0.967       .  S
O373      Ni1085   1.897   1_455  S
O373       Ni380   1.886       .  S
Ni375      O1083   1.916   1_454  S
Ni375       O377   1.938       .  S
Ni375      O1063   1.926   1_465  S
O376       Ni381   1.933       .  S
C378        O555   1.270       .  A
C378        C513   1.481       .  S
O379      Ni1079   1.916   1_556  S
O379        C554   1.270       .  A
Ni381      O1062   1.910       .  S
Ni381      O1077   1.897       .  S
H382        O887   0.966   1_455  S
O383       Ni389   1.932       .  S
O383        C404   1.273       .  A
O384        C393   1.269       .  A
O385       Ni389   1.894       .  S
O385      Ni1111   1.910   1_455  S
O385       Ni401   1.921       .  S
O385       H1112   0.967   1_455  S
C386        O403   1.284       .  A
C386        O395   1.276       .  A
C386        C420   1.479       .  S
O387       Ni406   1.909       .  S
O387        C393   1.266       .  A
O388       Ni406   1.898       .  S
O388        C390   1.265       .  A
Ni389      O1096   1.929   1_455  S
Ni389       O394   1.909       .  S
C390       O1104   1.270       .  A
C390        C483   1.467       .  S
O391       Ni407   1.923       .  S
O391        C397   1.274       .  A
O392      Ni1093   1.929       .  S
O392        C397   1.277       .  A
C393        C413   1.471       .  S
O394        C396   1.270       .  A
O395      Ni1110   1.893   1_455  S
C396        O402   1.271       .  A
C396        C430   1.471       .  S
C397        C470   1.473       .  S
H398        O751   0.967   1_455  S
O399       Ni753   1.897   1_565  S
O399       Ni406   1.880       .  S
O399        H750   0.967   1_565  S
O400       C1094   1.270   1_455  A
Ni401       O405   1.917       .  S
Ni401       O751   1.897   1_455  S
O402      Ni1111   1.932   1_455  S
C404        O405   1.271       .  A
C404        C490   1.483       .  S
Ni406      O1099   1.893       .  S
Ni407      O1106   1.932       .  S
Ni407      O1089   1.910       .  S
H408       O1089   0.967       .  S
C409        C410   1.429       .  A
C409        C414   1.387       .  A
C409        H416   1.074       .  S
C410        C411   1.436       .  A
C411        C412   1.397       .  A
C411        F418   1.342       .  S
C412        C413   1.391       .  A
C412        H417   1.084       .  S
C413        C414   1.396       .  A
C414        F415   1.359       .  S
C419        C420   1.399       .  A
C419        C424   1.379       .  A
C419        H426   1.083       .  S
C420        C421   1.399       .  A
C421        C422   1.403       .  A
C421        F428   1.358       .  S
C422        C423   1.433       .  A
C422        H427   1.075       .  S
C423        C424   1.420       .  A
C424        F425   1.343       .  S
C429        C430   1.387       .  A
C429        C434   1.389       .  A
C429        H436   1.085       .  S
C430        C431   1.398       .  A
C431        C432   1.407       .  A
C431        F438   1.357       .  S
C432        C433   1.428       .  A
C432        H437   1.076       .  S
C433        C434   1.441       .  A
C434        F435   1.355       .  S
C439        C440   1.431       .  A
C439        C444   1.389       .  A
C439        H446   1.076       .  S
C440        C441   1.434       .  A
C441        C442   1.400       .  A
C441        F448   1.343       .  S
C442        C443   1.393       .  A
C442        H447   1.084       .  S
C443        C444   1.395       .  A
C444        F445   1.359       .  S
C449        C450   1.426       .  A
C449        C454   1.386       .  A
C449        H456   1.074       .  S
C450        C451   1.434       .  A
C451        C452   1.407       .  A
C451        F458   1.354       .  S
C452        C453   1.398       .  A
C452        H457   1.083       .  S
C453        C454   1.390       .  A
C454        F455   1.356       .  S
C459        C460   1.433       .  A
C459        C464   1.407       .  A
C459        H466   1.075       .  S
C460        C461   1.425       .  A
C461        C462   1.380       .  A
C461        F468   1.342       .  S
C462        C463   1.397       .  A
C462        H467   1.083       .  S
C463        C464   1.400       .  A
C464        F465   1.357       .  S
C469        C470   1.398       .  A
C469        C474   1.401       .  A
C469        H476   1.084       .  S
C470        C471   1.397       .  A
C471        C472   1.400       .  A
C471        F478   1.357       .  S
C472        C473   1.419       .  A
C472        H477   1.077       .  S
C473        C474   1.427       .  A
C474        F475   1.357       .  S
C479        C480   1.426       .  A
C479        C484   1.395       .  A
C479        H486   1.067       .  S
C480        C481   1.432       .  A
C481        C482   1.402       .  A
C481        F488   1.352       .  S
C482        C483   1.396       .  A
C482        H487   1.084       .  S
C483        C484   1.390       .  A
C484        F485   1.358       .  S
C489        C490   1.396       .  A
C489        C494   1.402       .  A
C489        H496   1.083       .  S
C490        C491   1.398       .  A
C491        C492   1.396       .  A
C491        F498   1.358       .  S
C492        C493   1.427       .  A
C492        H497   1.074       .  S
C493        C494   1.435       .  A
C494        F495   1.351       .  S
C499        C500   1.424       .  A
C499        C680   1.404       .  A
C499        H682   1.082       .  S
C500        C501   1.428       .  A
C501        C502   1.399       .  A
C501        F508   1.343       .  S
C502        C503   1.392       .  A
C502        H507   1.084       .  S
C503        C680   1.401       .  A
C504        C675   1.404       .  A
C504        C679   1.401       .  A
C504        F505   1.355   1_556  S
H506        C675   1.082       .  S
C509        C510   1.427       .  A
C509        C514   1.395       .  A
C509        H516   1.075       .  S
C510        C511   1.432       .  A
C511        C512   1.403       .  A
C511        F518   1.349       .  S
C512        C513   1.396       .  A
C512        H517   1.083       .  S
C513        C514   1.397       .  A
C514        F691   1.358       .  S
F515        C690   1.358   1_554  S
C519        C520   1.422       .  A
C519        C524   1.406       .  A
C519        H526   1.079       .  S
C520        C521   1.433       .  A
C521        C522   1.395       .  A
C521        F528   1.347       .  S
C522        C523   1.388       .  A
C522        H527   1.084       .  S
C523        C540   1.472       .  S
C523        C524   1.402       .  A
C524        F701   1.358       .  S
F525        C700   1.358       .  S
C529        C530   1.716       .  S
C529        C676   1.597       .  S
C529        C686   1.600       .  S
C529        C696   1.595       .  S
C530        C649   1.582       .  S
C530        C656   1.596       .  S
C530        C669   1.603       .  S
C531        C532   1.725       .  S
C531        C616   1.604       .  S
C531        C626   1.591       .  S
C531        C636   1.600       .  S
C532        C586   1.603       .  S
C532        C599   1.583       .  S
C532        C609   1.596       .  S
O533       Ni539   1.931       .  S
O533        C554   1.272       .  A
O534      Ni1261   1.910   1_455  S
O534        C543   1.268       .  A
O535      Ni1255   1.926   1_545  S
O535        H734   0.966       .  S
C536        O553   1.284       .  A
C536        C639   1.485       .  S
O537       Ni556   1.920       .  S
O537        C543   1.270       .  A
O538       Ni556   1.902       .  S
O538        C540   1.266       .  A
C540        O550   1.271       .  A
O541       Ni557   1.925       .  S
O542        C547   1.278       .  A
C543        C619   1.474       .  S
O544        C546   1.268       .  A
O545       Ni556   1.900       .  S
C546        C629   1.469       .  S
C547        C679   1.478       .  S
H548        O549   0.967       .  S
O549      Ni1261   1.897   1_455  S
O549       Ni556   1.886       .  S
Ni551      O1259   1.916   1_455  S
Ni551       O553   1.938       .  S
Ni551      O1239   1.926   1_465  S
O552       Ni557   1.933       .  S
C554        C689   1.481       .  S
O555      Ni1255   1.916       .  S
Ni557      O1238   1.910       .  S
Ni557      O1253   1.897       .  S
H558        O711   0.966   1_456  S
O559       Ni565   1.932       .  S
O559        C580   1.273       .  A
O560        C569   1.269       .  A
O561       Ni565   1.894       .  S
O561      Ni1287   1.910   1_455  S
O561       Ni577   1.921       .  S
O561       H1288   0.967   1_455  S
C562        O579   1.284       .  A
C562        O571   1.276       .  A
C562        C596   1.479       .  S
O563       Ni582   1.909       .  S
O563        C569   1.266       .  A
O564       Ni582   1.898       .  S
O564        C566   1.265       .  A
Ni565      O1272   1.929   1_455  S
Ni565       O570   1.909       .  S
C566       O1280   1.270       .  A
C566        C659   1.467       .  S
O567       Ni583   1.923       .  S
O567        C573   1.274       .  A
O568      Ni1269   1.929       .  S
O568        C573   1.277       .  A
C569        C589   1.471       .  S
O570        C572   1.270       .  A
O571      Ni1286   1.893   1_455  S
C572        O578   1.271       .  A
C572        C606   1.471       .  S
C573        C646   1.473       .  S
H574        O927   0.967   1_455  S
O575       Ni929   1.897   1_565  S
O575       Ni582   1.880       .  S
O575        H926   0.967   1_565  S
O576       C1270   1.270   1_455  A
Ni577       O581   1.917       .  S
Ni577       O927   1.897   1_455  S
O578      Ni1287   1.932   1_455  S
C580        O581   1.271       .  A
C580        C666   1.483       .  S
Ni582      O1275   1.893       .  S
Ni583      O1282   1.932       .  S
Ni583      O1265   1.910       .  S
H584       O1265   0.967       .  S
C585        C586   1.429       .  A
C585        C590   1.387       .  A
C585        H592   1.074       .  S
C586        C587   1.436       .  A
C587        C588   1.397       .  A
C587        F594   1.342       .  S
C588        C589   1.391       .  A
C588        H593   1.084       .  S
C589        C590   1.396       .  A
C590        F591   1.359       .  S
C595        C596   1.399       .  A
C595        C600   1.379       .  A
C595        H602   1.083       .  S
C596        C597   1.399       .  A
C597        C598   1.403       .  A
C597        F604   1.358       .  S
C598        C599   1.433       .  A
C598        H603   1.075       .  S
C599        C600   1.420       .  A
C600        F601   1.343       .  S
C605        C606   1.387       .  A
C605        C610   1.389       .  A
C605        H612   1.085       .  S
C606        C607   1.398       .  A
C607        C608   1.407       .  A
C607        F614   1.357       .  S
C608        C609   1.428       .  A
C608        H613   1.076       .  S
C609        C610   1.441       .  A
C610        F611   1.355       .  S
C615        C616   1.431       .  A
C615        C620   1.389       .  A
C615        H622   1.076       .  S
C616        C617   1.434       .  A
C617        C618   1.400       .  A
C617        F624   1.343       .  S
C618        C619   1.393       .  A
C618        H623   1.084       .  S
C619        C620   1.395       .  A
C620        F621   1.359       .  S
C625        C626   1.426       .  A
C625        C630   1.386       .  A
C625        H632   1.074       .  S
C626        C627   1.434       .  A
C627        C628   1.407       .  A
C627        F634   1.354       .  S
C628        C629   1.398       .  A
C628        H633   1.083       .  S
C629        C630   1.390       .  A
C630        F631   1.356       .  S
C635        C636   1.433       .  A
C635        C640   1.407       .  A
C635        H642   1.075       .  S
C636        C637   1.425       .  A
C637        C638   1.380       .  A
C637        F644   1.342       .  S
C638        C639   1.397       .  A
C638        H643   1.083       .  S
C639        C640   1.400       .  A
C640        F641   1.357       .  S
C645        C646   1.398       .  A
C645        C650   1.401       .  A
C645        H652   1.084       .  S
C646        C647   1.397       .  A
C647        C648   1.400       .  A
C647        F654   1.357       .  S
C648        C649   1.419       .  A
C648        H653   1.077       .  S
C649        C650   1.427       .  A
C650        F651   1.357       .  S
C655        C656   1.426       .  A
C655        C660   1.395       .  A
C655        H662   1.067       .  S
C656        C657   1.432       .  A
C657        C658   1.402       .  A
C657        F664   1.352       .  S
C658        C659   1.396       .  A
C658        H663   1.084       .  S
C659        C660   1.390       .  A
C660        F661   1.358       .  S
C665        C666   1.396       .  A
C665        C670   1.402       .  A
C665        H672   1.083       .  S
C666        C667   1.398       .  A
C667        C668   1.396       .  A
C667        F674   1.358       .  S
C668        C669   1.427       .  A
C668        H673   1.074       .  S
C669        C670   1.435       .  A
C670        F671   1.351       .  S
C675        C676   1.424       .  A
C676        C677   1.428       .  A
C677        C678   1.399       .  A
C677        F684   1.343       .  S
C678        C679   1.392       .  A
C678        H683   1.084       .  S
C680        F681   1.355       .  S
C685        C686   1.427       .  A
C685        C690   1.395       .  A
C685        H692   1.075       .  S
C686        C687   1.432       .  A
C687        C688   1.403       .  A
C687        F694   1.349       .  S
C688        C689   1.396       .  A
C688        H693   1.083       .  S
C689        C690   1.397       .  A
C695        C696   1.422       .  A
C695        C700   1.406       .  A
C695        H702   1.079       .  S
C696        C697   1.433       .  A
C697        C698   1.395       .  A
C697        F704   1.347       .  S
C698        C699   1.388       .  A
C698        H703   1.084       .  S
C699        C700   1.402       .  A
C705        C706   1.716       .  S
C705        C852   1.597       .  S
C705        C862   1.600       .  S
C705        C872   1.595       .  S
C706        C825   1.582       .  S
C706        C832   1.596       .  S
C706        C845   1.603       .  S
C707        C708   1.725       .  S
C707        C792   1.604       .  S
C707        C802   1.591       .  S
C707        C812   1.600       .  S
C708        C762   1.603       .  S
C708        C775   1.583       .  S
C708        C785   1.596       .  S
O709       Ni715   1.931       .  S
O709        C730   1.272       .  A
O710        C719   1.268       .  A
O711       Ni891   1.903   1_554  S
O711      Ni1085   1.915       .  S
C712        O729   1.284       .  A
C712       O1073   1.277       .  A
C712        C815   1.485       .  S
O713       Ni732   1.920       .  S
O713        C719   1.270       .  A
O714       Ni732   1.902       .  S
O714        C716   1.266       .  A
Ni715      O1070   1.933       .  S
Ni715       O896   1.904       .  S
Ni715       O887   1.903       .  S
C716        O726   1.271   1_554  A
C716       C1051   1.472   1_554  S
O717       Ni733   1.925       .  S
O717        C899   1.273   1_554  A
O718      Ni1067   1.933   1_545  S
O718        C723   1.278       .  A
C719        C795   1.474       .  S
O720       Ni891   1.904   1_554  S
O720        C722   1.268       .  A
O721       Ni732   1.900       .  S
O721       C1064   1.277   1_545  A
C722       O1080   1.272       .  A
C722        C805   1.469       .  S
C723        O893   1.273       .  A
C723        C855   1.478       .  S
H724        O725   0.967       .  S
O725      Ni1079   1.900   1_545  S
O725       Ni732   1.886       .  S
O726      Ni1079   1.937   1_546  S
Ni727      O1078   1.937   1_554  S
Ni727       O729   1.938       .  S
Ni727      O1077   1.900       .  S
O728       Ni733   1.933       .  S
O728       C1074   1.272   1_545  A
C730        O907   1.270       .  A
C730        C865   1.481       .  S
O731        C906   1.270       .  A
Ni733      O1063   1.915       .  S
O735       Ni741   1.932       .  S
O735        C756   1.273       .  A
O736      Ni1111   1.912       .  S
O736        C745   1.269       .  A
O737       Ni741   1.894       .  S
O737       Ni753   1.921       .  S
C738        O755   1.284       .  A
C738        O747   1.276       .  A
C738        C772   1.480       .  S
O739       Ni758   1.909       .  S
O739        C745   1.266       .  A
O740       Ni758   1.898       .  S
O740        C742   1.265       .  A
Ni741       O746   1.909       .  S
C742        C835   1.467       .  S
O743       Ni759   1.923       .  S
O743        C749   1.274       .  A
O744        C749   1.277       .  A
C745        C765   1.471       .  S
O746        C748   1.270       .  A
C748        O754   1.271       .  A
C748        C782   1.471       .  S
C749        C822   1.473       .  S
O751      Ni1111   1.894       .  S
O751       Ni758   1.880       .  S
O752      Ni1105   1.933       .  S
Ni753      O1104   1.933   1_545  S
Ni753       O757   1.917       .  S
Ni753      O1107   1.934   1_545  S
O755      Ni1105   1.935       .  S
C756        O757   1.271       .  A
C756        C842   1.483       .  S
Ni759      O1088   1.912   1_545  S
Ni759      O1103   1.894   1_545  S
C761        C762   1.429       .  A
C761        C766   1.387       .  A
C761        H768   1.074       .  S
C762        C763   1.436       .  A
C763        C764   1.397       .  A
C763        F770   1.342       .  S
C764        C765   1.390       .  A
C764        H769   1.084       .  S
C765        C766   1.396       .  A
C766        F767   1.359       .  S
C771        C772   1.399       .  A
C771        C776   1.379       .  A
C771        H778   1.083       .  S
C772        C773   1.399       .  A
C773        C774   1.403       .  A
C773        F780   1.358       .  S
C774        C775   1.433       .  A
C774        H779   1.075       .  S
C775        C776   1.420       .  A
C776        F777   1.343       .  S
C781        C782   1.387       .  A
C781        C786   1.389       .  A
C781        H788   1.085       .  S
C782        C783   1.398       .  A
C783        C784   1.407       .  A
C783        F790   1.357       .  S
C784        C785   1.428       .  A
C784        H789   1.076       .  S
C785        C786   1.441       .  A
C786        F787   1.355       .  S
C791        C792   1.431       .  A
C791        C796   1.389       .  A
C791        H798   1.076       .  S
C792        C793   1.434       .  A
C793        C794   1.400       .  A
C793        F800   1.343       .  S
C794        C795   1.393       .  A
C794        H799   1.084       .  S
C795        C796   1.395       .  A
C796        F797   1.359       .  S
C801        C802   1.426       .  A
C801        C806   1.386       .  A
C801        H808   1.074       .  S
C802        C803   1.434       .  A
C803        C804   1.407       .  A
C803        F810   1.354       .  S
C804        C805   1.398       .  A
C804        H809   1.083       .  S
C805        C806   1.390       .  A
C806        F807   1.356       .  S
C811        C812   1.433       .  A
C811        C816   1.407       .  A
C811        H818   1.075       .  S
C812        C813   1.425       .  A
C813        C814   1.380       .  A
C813        F820   1.342       .  S
C814        C815   1.397       .  A
C814        H819   1.083       .  S
C815        C816   1.400       .  A
C816        F817   1.357       .  S
C821        C822   1.398       .  A
C821        C826   1.401       .  A
C821        H828   1.084       .  S
C822        C823   1.397       .  A
C823        C824   1.400       .  A
C823        F830   1.357       .  S
C824        C825   1.419       .  A
C824        H829   1.077       .  S
C825        C826   1.427       .  A
C826        F827   1.357       .  S
C831        C832   1.426       .  A
C831        C836   1.395       .  A
C831        H838   1.067       .  S
C832        C833   1.432       .  A
C833        C834   1.402       .  A
C833        F840   1.352       .  S
C834        C835   1.396       .  A
C834        H839   1.084   1_655  S
C835        C836   1.390       .  A
C836        F837   1.358       .  S
C841        C842   1.396       .  A
C841        C846   1.402       .  A
C841        H848   1.083       .  S
C842        C843   1.398       .  A
C843        C844   1.396       .  A
C843        F850   1.358       .  S
C844        C845   1.427       .  A
C844        H849   1.074       .  S
C845        C846   1.435       .  A
C846        F847   1.351       .  S
C851        C852   1.424       .  A
C851       C1032   1.404       .  A
C851       H1034   1.082       .  S
C852        C853   1.428       .  A
C853        C854   1.399       .  A
C853        F860   1.343       .  S
C854        C855   1.392       .  A
C854        H859   1.084       .  S
C855       C1032   1.401       .  A
C856       C1027   1.404       .  A
C856       C1031   1.401       .  A
C856        F857   1.355   1_556  S
H858       C1027   1.082       .  S
C861        C862   1.427       .  A
C861        C866   1.395       .  A
C861        H868   1.075       .  S
C862        C863   1.432       .  A
C863        C864   1.403       .  A
C863        F870   1.349       .  S
C864        C865   1.396       .  A
C864        H869   1.083       .  S
C865        C866   1.397       .  A
C866       F1043   1.358       .  S
F867       C1042   1.358   1_554  S
C871        C872   1.422       .  A
C871        C876   1.406       .  A
C871        H878   1.079       .  S
C872        C873   1.433       .  A
C873        C874   1.395       .  A
C873        F880   1.347       .  S
C874        C875   1.388       .  A
C874        H879   1.084       .  S
C875        C892   1.472       .  S
C875        C876   1.402       .  A
C876       F1053   1.358       .  S
F877       C1052   1.358       .  S
C881        C882   1.716       .  S
C881       C1028   1.597       .  S
C881       C1038   1.600       .  S
C881       C1048   1.595       .  S
C882       C1001   1.582       .  S
C882       C1008   1.596       .  S
C882       C1021   1.603       .  S
C883        C884   1.725       .  S
C883        C968   1.604       .  S
C883        C978   1.591       .  S
C883        C988   1.600       .  S
C884        C938   1.603       .  S
C884        C951   1.583       .  S
C884        C961   1.596       .  S
O885       Ni891   1.931       .  S
O885        C906   1.272       .  A
O886        C895   1.268       .  A
O887      Ni1261   1.915       .  S
C888        O905   1.284       .  A
C888       O1249   1.277       .  A
C888        C991   1.485       .  S
O889       Ni908   1.920       .  S
O889        C895   1.270       .  A
O890       Ni908   1.902       .  S
O890        C892   1.266       .  A
Ni891      O1246   1.933       .  S
C892        O902   1.271       .  A
O893       Ni909   1.925       .  S
O894      Ni1243   1.933   1_545  S
O894        C899   1.278       .  A
C895        C971   1.474       .  S
O896        C898   1.268       .  A
O897       Ni908   1.900       .  S
O897       C1240   1.277   1_545  A
C898       O1256   1.272       .  A
C898        C981   1.469       .  S
C899       C1031   1.478       .  S
H900        O901   0.967       .  S
O901      Ni1255   1.900   1_545  S
O901       Ni908   1.886       .  S
O902      Ni1255   1.937   1_545  S
Ni903      O1254   1.937       .  S
Ni903       O905   1.938       .  S
Ni903      O1253   1.900       .  S
O904       Ni909   1.933       .  S
O904       C1250   1.272   1_545  A
C906       C1041   1.481       .  S
Ni909      O1239   1.915       .  S
O911       Ni917   1.932       .  S
O911        C932   1.273       .  A
O912      Ni1287   1.912       .  S
O912        C921   1.269       .  A
O913       Ni917   1.894       .  S
O913       Ni929   1.921       .  S
C914        O931   1.284       .  A
C914        O923   1.276       .  A
C914        C948   1.480       .  S
O915       Ni934   1.909       .  S
O915        C921   1.266       .  A
O916       Ni934   1.898       .  S
O916        C918   1.265       .  A
Ni917       O922   1.909       .  S
C918       C1011   1.467       .  S
O919       Ni935   1.923       .  S
O919        C925   1.274       .  A
O920        C925   1.277       .  A
C921        C941   1.471       .  S
O922        C924   1.270       .  A
C924        O930   1.271       .  A
C924        C958   1.471       .  S
C925        C998   1.473       .  S
O927      Ni1287   1.894       .  S
O927       Ni934   1.880       .  S
O928      Ni1281   1.933       .  S
Ni929      O1280   1.933   1_545  S
Ni929       O933   1.917       .  S
Ni929      O1283   1.934   1_545  S
O931      Ni1281   1.935       .  S
C932        O933   1.271       .  A
C932       C1018   1.483       .  S
Ni935      O1264   1.912   1_545  S
Ni935      O1279   1.894   1_545  S
C937        C938   1.429       .  A
C937        C942   1.387       .  A
C937        H944   1.074       .  S
C938        C939   1.436       .  A
C939        C940   1.397       .  A
C939        F946   1.342       .  S
C940        C941   1.390       .  A
C940        H945   1.084       .  S
C941        C942   1.396       .  A
C942        F943   1.359       .  S
C947        C948   1.399       .  A
C947        C952   1.379       .  A
C947        H954   1.083       .  S
C948        C949   1.399       .  A
C949        C950   1.403       .  A
C949        F956   1.358       .  S
C950        C951   1.433       .  A
C950        H955   1.075       .  S
C951        C952   1.420       .  A
C952        F953   1.343       .  S
C957        C958   1.387       .  A
C957        C962   1.389       .  A
C957        H964   1.085       .  S
C958        C959   1.398       .  A
C959        C960   1.407       .  A
C959        F966   1.357       .  S
C960        C961   1.428       .  A
C960        H965   1.076       .  S
C961        C962   1.441       .  A
C962        F963   1.355       .  S
C967        C968   1.431       .  A
C967        C972   1.389       .  A
C967        H974   1.076       .  S
C968        C969   1.434       .  A
C969        C970   1.400       .  A
C969        F976   1.343       .  S
C970        C971   1.393       .  A
C970        H975   1.084       .  S
C971        C972   1.395       .  A
C972        F973   1.359       .  S
C977        C978   1.426       .  A
C977        C982   1.386       .  A
C977        H984   1.074       .  S
C978        C979   1.434       .  A
C979        C980   1.407       .  A
C979        F986   1.354       .  S
C980        C981   1.398       .  A
C980        H985   1.083       .  S
C981        C982   1.390       .  A
C982        F983   1.356       .  S
C987        C988   1.433       .  A
C987        C992   1.407       .  A
C987        H994   1.075       .  S
C988        C989   1.425       .  A
C989        C990   1.380       .  A
C989        F996   1.342       .  S
C990        C991   1.397       .  A
C990        H995   1.083       .  S
C991        C992   1.400       .  A
C992        F993   1.357       .  S
C997        C998   1.398       .  A
C997       C1002   1.401       .  A
C997       H1004   1.084       .  S
C998        C999   1.397       .  A
C999       C1000   1.400       .  A
C999       F1006   1.357       .  S
C1000      C1001   1.419       .  A
C1000      H1005   1.077       .  S
C1001      C1002   1.427       .  A
C1002      F1003   1.357       .  S
C1007      C1008   1.426       .  A
C1007      C1012   1.395       .  A
C1007      H1014   1.067       .  S
C1008      C1009   1.432       .  A
C1009      C1010   1.402       .  A
C1009      F1016   1.352       .  S
C1010      C1011   1.396       .  A
C1010      H1015   1.084   1_655  S
C1011      C1012   1.390       .  A
C1012      F1013   1.358       .  S
C1017      C1018   1.396       .  A
C1017      C1022   1.402       .  A
C1017      H1024   1.083       .  S
C1018      C1019   1.398       .  A
C1019      C1020   1.396       .  A
C1019      F1026   1.358       .  S
C1020      C1021   1.427       .  A
C1020      H1025   1.074       .  S
C1021      C1022   1.435       .  A
C1022      F1023   1.351       .  S
C1027      C1028   1.424       .  A
C1028      C1029   1.428       .  A
C1029      C1030   1.399       .  A
C1029      F1036   1.343       .  S
C1030      C1031   1.392       .  A
C1030      H1035   1.084       .  S
C1032      F1033   1.355       .  S
C1037      C1038   1.427       .  A
C1037      C1042   1.395       .  A
C1037      H1044   1.075       .  S
C1038      C1039   1.432       .  A
C1039      C1040   1.403       .  A
C1039      F1046   1.349       .  S
C1040      C1041   1.396       .  A
C1040      H1045   1.083       .  S
C1041      C1042   1.397       .  A
C1047      C1048   1.422       .  A
C1047      C1052   1.406       .  A
C1047      H1054   1.079       .  S
C1048      C1049   1.433       .  A
C1049      C1050   1.395       .  A
C1049      F1056   1.347       .  S
C1050      C1051   1.388       .  A
C1050      H1055   1.084       .  S
C1051      C1052   1.402       .  A
C1057      C1058   1.716       .  S
C1057      C1204   1.597       .  S
C1057      C1214   1.600       .  S
C1057      C1224   1.595       .  S
C1058      C1177   1.582       .  S
C1058      C1184   1.596       .  S
C1058      C1197   1.603       .  S
C1059      C1060   1.725       .  S
C1059      C1144   1.604       .  S
C1059      C1154   1.591       .  S
C1059      C1164   1.600       .  S
C1060      C1114   1.603       .  S
C1060      C1127   1.583       .  S
C1060      C1137   1.596       .  S
O1061     Ni1067   1.931       .  S
O1061      C1082   1.272       .  A
O1062      C1071   1.268       .  A
O1063     Ni1243   1.903   1_544  S
C1064      O1081   1.284       .  A
C1064      C1167   1.485       .  S
O1065     Ni1084   1.920       .  S
O1065      C1071   1.270       .  A
O1066     Ni1084   1.902       .  S
O1066      C1068   1.266       .  A
Ni1067     O1248   1.904       .  S
Ni1067     O1239   1.903   1_565  S
C1068      O1078   1.271   1_554  A
C1068      C1403   1.472   1_554  S
O1069     Ni1085   1.925       .  S
O1069      C1251   1.273   1_554  A
O1070      C1075   1.278       .  A
C1071      C1147   1.474       .  S
O1072     Ni1243   1.904   1_554  S
O1072      C1074   1.268       .  A
O1073     Ni1084   1.900       .  S
C1074      C1157   1.469       .  S
C1075      O1245   1.273       .  A
C1075      C1207   1.478       .  S
H1076      O1077   0.967       .  S
O1077     Ni1084   1.886       .  S
Ni1079     O1081   1.938       .  S
O1080     Ni1085   1.933       .  S
C1082      O1259   1.270       .  A
C1082      C1217   1.481       .  S
O1083      C1258   1.270       .  A
O1087     Ni1093   1.932       .  S
O1087      C1108   1.273       .  A
O1088      C1097   1.269       .  A
O1089     Ni1093   1.894       .  S
O1089     Ni1105   1.921       .  S
C1090      O1107   1.284       .  A
C1090      O1099   1.276       .  A
C1090      C1124   1.479       .  S
O1091     Ni1110   1.909       .  S
O1091      C1097   1.266       .  A
O1092     Ni1110   1.898       .  S
O1092      C1094   1.265       .  A
Ni1093     O1098   1.909       .  S
C1094      C1187   1.467       .  S
O1095     Ni1111   1.923       .  S
O1095      C1101   1.274       .  A
O1096      C1101   1.277       .  A
C1097      C1117   1.471       .  S
O1098      C1100   1.270       .  A
C1100      O1106   1.271       .  A
C1100      C1134   1.471       .  S
C1101      C1174   1.473       .  S
O1103     Ni1110   1.880       .  S
Ni1105     O1109   1.917       .  S
C1108      O1109   1.271       .  A
C1108      C1194   1.483       .  S
C1113      C1114   1.429       .  A
C1113      C1118   1.387       .  A
C1113      H1120   1.074       .  S
C1114      C1115   1.436       .  A
C1115      C1116   1.397       .  A
C1115      F1122   1.342       .  S
C1116      C1117   1.391       .  A
C1116      H1121   1.084       .  S
C1117      C1118   1.396       .  A
C1118      F1119   1.359       .  S
C1123      C1124   1.399       .  A
C1123      C1128   1.379       .  A
C1123      H1130   1.083       .  S
C1124      C1125   1.399       .  A
C1125      C1126   1.403       .  A
C1125      F1132   1.358       .  S
C1126      C1127   1.433       .  A
C1126      H1131   1.075       .  S
C1127      C1128   1.420       .  A
C1128      F1129   1.343       .  S
C1133      C1134   1.387       .  A
C1133      C1138   1.389       .  A
C1133      H1140   1.085       .  S
C1134      C1135   1.398       .  A
C1135      C1136   1.407       .  A
C1135      F1142   1.357       .  S
C1136      C1137   1.428       .  A
C1136      H1141   1.076       .  S
C1137      C1138   1.441       .  A
C1138      F1139   1.355       .  S
C1143      C1144   1.431       .  A
C1143      C1148   1.389       .  A
C1143      H1150   1.076       .  S
C1144      C1145   1.434       .  A
C1145      C1146   1.400       .  A
C1145      F1152   1.343       .  S
C1146      C1147   1.393       .  A
C1146      H1151   1.084       .  S
C1147      C1148   1.395       .  A
C1148      F1149   1.359       .  S
C1153      C1154   1.426       .  A
C1153      C1158   1.386       .  A
C1153      H1160   1.074       .  S
C1154      C1155   1.434       .  A
C1155      C1156   1.407       .  A
C1155      F1162   1.354       .  S
C1156      C1157   1.398       .  A
C1156      H1161   1.083       .  S
C1157      C1158   1.390       .  A
C1158      F1159   1.356       .  S
C1163      C1164   1.433       .  A
C1163      C1168   1.407       .  A
C1163      H1170   1.075       .  S
C1164      C1165   1.425       .  A
C1165      C1166   1.380       .  A
C1165      F1172   1.342       .  S
C1166      C1167   1.397       .  A
C1166      H1171   1.083       .  S
C1167      C1168   1.400       .  A
C1168      F1169   1.357       .  S
C1173      C1174   1.398       .  A
C1173      C1178   1.401       .  A
C1173      H1180   1.084       .  S
C1174      C1175   1.397       .  A
C1175      C1176   1.400       .  A
C1175      F1182   1.357       .  S
C1176      C1177   1.419       .  A
C1176      H1181   1.077       .  S
C1177      C1178   1.427       .  A
C1178      F1179   1.357       .  S
C1183      C1184   1.426       .  A
C1183      C1188   1.395       .  A
C1183      H1190   1.067       .  S
C1184      C1185   1.432       .  A
C1185      C1186   1.402       .  A
C1185      F1192   1.352       .  S
C1186      C1187   1.396       .  A
C1186      H1191   1.084   1_655  S
C1187      C1188   1.390       .  A
C1188      F1189   1.358       .  S
C1193      C1194   1.396       .  A
C1193      C1198   1.402       .  A
C1193      H1200   1.083       .  S
C1194      C1195   1.398       .  A
C1195      C1196   1.396       .  A
C1195      F1202   1.358       .  S
C1196      C1197   1.427       .  A
C1196      H1201   1.074       .  S
C1197      C1198   1.435       .  A
C1198      F1199   1.351       .  S
C1203      C1204   1.424       .  A
C1203      C1384   1.404       .  A
C1203      H1386   1.082       .  S
C1204      C1205   1.428       .  A
C1205      C1206   1.399       .  A
C1205      F1212   1.343       .  S
C1206      C1207   1.392       .  A
C1206      H1211   1.084       .  S
C1207      C1384   1.401       .  A
C1208      C1379   1.404       .  A
C1208      C1383   1.401       .  A
C1208      F1209   1.355   1_556  S
H1210      C1379   1.082       .  S
C1213      C1214   1.427       .  A
C1213      C1218   1.395       .  A
C1213      H1220   1.075       .  S
C1214      C1215   1.432       .  A
C1215      C1216   1.403       .  A
C1215      F1222   1.349       .  S
C1216      C1217   1.396       .  A
C1216      H1221   1.083       .  S
C1217      C1218   1.397       .  A
C1218      F1395   1.358       .  S
F1219      C1394   1.358   1_554  S
C1223      C1224   1.422       .  A
C1223      C1228   1.406       .  A
C1223      H1230   1.079       .  S
C1224      C1225   1.433       .  A
C1225      C1226   1.395       .  A
C1225      F1232   1.347       .  S
C1226      C1227   1.388       .  A
C1226      H1231   1.084       .  S
C1227      C1244   1.472       .  S
C1227      C1228   1.402       .  A
C1228      F1405   1.358       .  S
F1229      C1404   1.358       .  S
C1233      C1234   1.716       .  S
C1233      C1380   1.597       .  S
C1233      C1390   1.600       .  S
C1233      C1400   1.595       .  S
C1234      C1353   1.582       .  S
C1234      C1360   1.596       .  S
C1234      C1373   1.603       .  S
C1235      C1236   1.725       .  S
C1235      C1320   1.604       .  S
C1235      C1330   1.591       .  S
C1235      C1340   1.600       .  S
C1236      C1290   1.603       .  S
C1236      C1303   1.583       .  S
C1236      C1313   1.596       .  S
O1237     Ni1243   1.931       .  S
O1237      C1258   1.272       .  A
O1238      C1247   1.268       .  A
C1240      O1257   1.284       .  A
C1240      C1343   1.485       .  S
O1241     Ni1260   1.920       .  S
O1241      C1247   1.270       .  A
O1242     Ni1260   1.902       .  S
O1242      C1244   1.266       .  A
C1244      O1254   1.271       .  A
O1245     Ni1261   1.925       .  S
O1246      C1251   1.278       .  A
C1247      C1323   1.474       .  S
O1248      C1250   1.268       .  A
O1249     Ni1260   1.900       .  S
C1250      C1333   1.469       .  S
C1251      C1383   1.478       .  S
H1252      O1253   0.967       .  S
O1253     Ni1260   1.886       .  S
Ni1255     O1257   1.938       .  S
O1256     Ni1261   1.933       .  S
C1258      C1393   1.481       .  S
O1263     Ni1269   1.932       .  S
O1263      C1284   1.273       .  A
O1264      C1273   1.269       .  A
O1265     Ni1269   1.894       .  S
O1265     Ni1281   1.921       .  S
C1266      O1283   1.284       .  A
C1266      O1275   1.276       .  A
C1266      C1300   1.479       .  S
O1267     Ni1286   1.909       .  S
O1267      C1273   1.266       .  A
O1268     Ni1286   1.898       .  S
O1268      C1270   1.265       .  A
Ni1269     O1274   1.909       .  S
C1270      C1363   1.467       .  S
O1271     Ni1287   1.923       .  S
O1271      C1277   1.274       .  A
O1272      C1277   1.277       .  A
C1273      C1293   1.471       .  S
O1274      C1276   1.270       .  A
C1276      O1282   1.271       .  A
C1276      C1310   1.471       .  S
C1277      C1350   1.473       .  S
O1279     Ni1286   1.880       .  S
Ni1281     O1285   1.917       .  S
C1284      O1285   1.271       .  A
C1284      C1370   1.483       .  S
C1289      C1290   1.429       .  A
C1289      C1294   1.387       .  A
C1289      H1296   1.074       .  S
C1290      C1291   1.436       .  A
C1291      C1292   1.397       .  A
C1291      F1298   1.342       .  S
C1292      C1293   1.391       .  A
C1292      H1297   1.084       .  S
C1293      C1294   1.396       .  A
C1294      F1295   1.359       .  S
C1299      C1300   1.399       .  A
C1299      C1304   1.379       .  A
C1299      H1306   1.083       .  S
C1300      C1301   1.399       .  A
C1301      C1302   1.403       .  A
C1301      F1308   1.358       .  S
C1302      C1303   1.433       .  A
C1302      H1307   1.075       .  S
C1303      C1304   1.420       .  A
C1304      F1305   1.343       .  S
C1309      C1310   1.387       .  A
C1309      C1314   1.389       .  A
C1309      H1316   1.085       .  S
C1310      C1311   1.398       .  A
C1311      C1312   1.407       .  A
C1311      F1318   1.357       .  S
C1312      C1313   1.428       .  A
C1312      H1317   1.076       .  S
C1313      C1314   1.441       .  A
C1314      F1315   1.355       .  S
C1319      C1320   1.431       .  A
C1319      C1324   1.389       .  A
C1319      H1326   1.076       .  S
C1320      C1321   1.434       .  A
C1321      C1322   1.400       .  A
C1321      F1328   1.343       .  S
C1322      C1323   1.393       .  A
C1322      H1327   1.084       .  S
C1323      C1324   1.395       .  A
C1324      F1325   1.359       .  S
C1329      C1330   1.426       .  A
C1329      C1334   1.386       .  A
C1329      H1336   1.074       .  S
C1330      C1331   1.434       .  A
C1331      C1332   1.407       .  A
C1331      F1338   1.354       .  S
C1332      C1333   1.398       .  A
C1332      H1337   1.083       .  S
C1333      C1334   1.390       .  A
C1334      F1335   1.356       .  S
C1339      C1340   1.433       .  A
C1339      C1344   1.407       .  A
C1339      H1346   1.075       .  S
C1340      C1341   1.425       .  A
C1341      C1342   1.380       .  A
C1341      F1348   1.342       .  S
C1342      C1343   1.397       .  A
C1342      H1347   1.083       .  S
C1343      C1344   1.400       .  A
C1344      F1345   1.357       .  S
C1349      C1350   1.398       .  A
C1349      C1354   1.401       .  A
C1349      H1356   1.084       .  S
C1350      C1351   1.397       .  A
C1351      C1352   1.400       .  A
C1351      F1358   1.357       .  S
C1352      C1353   1.419       .  A
C1352      H1357   1.077       .  S
C1353      C1354   1.427       .  A
C1354      F1355   1.357       .  S
C1359      C1360   1.426       .  A
C1359      C1364   1.395       .  A
C1359      H1366   1.067       .  S
C1360      C1361   1.432       .  A
C1361      C1362   1.402       .  A
C1361      F1368   1.352       .  S
C1362      C1363   1.396       .  A
C1362      H1367   1.084   1_655  S
C1363      C1364   1.390       .  A
C1364      F1365   1.358       .  S
C1369      C1370   1.396       .  A
C1369      C1374   1.402       .  A
C1369      H1376   1.083       .  S
C1370      C1371   1.398       .  A
C1371      C1372   1.396       .  A
C1371      F1378   1.358       .  S
C1372      C1373   1.427       .  A
C1372      H1377   1.074       .  S
C1373      C1374   1.435       .  A
C1374      F1375   1.351       .  S
C1379      C1380   1.424       .  A
C1380      C1381   1.428       .  A
C1381      C1382   1.399       .  A
C1381      F1388   1.343       .  S
C1382      C1383   1.392       .  A
C1382      H1387   1.084       .  S
C1384      F1385   1.355       .  S
C1389      C1390   1.427       .  A
C1389      C1394   1.395       .  A
C1389      H1396   1.075       .  S
C1390      C1391   1.432       .  A
C1391      C1392   1.403       .  A
C1391      F1398   1.349       .  S
C1392      C1393   1.396       .  A
C1392      H1397   1.083       .  S
C1393      C1394   1.397       .  A
C1399      C1400   1.422       .  A
C1399      C1404   1.406       .  A
C1399      H1406   1.079       .  S
C1400      C1401   1.433       .  A
C1401      C1402   1.395       .  A
C1401      F1408   1.347       .  S
C1402      C1403   1.388       .  A
C1402      H1407   1.084       .  S
C1403      C1404   1.402       .  A
