geometry optimzed in LAMMPS
_audit_creation_date              2020-12-01 
_audit_creation_method            'lammps2cif' 
_symmetry_space_group_name_H-M    'P1' 
_symmetry_Int_Tables_number       1 
_symmetry_cell_setting            triclinic 
loop_ 
_symmetry_equiv_pos_as_xyz 
  x,y,z 
_cell_length_a                    65.31102715 
_cell_length_b                    65.57901805059953 
_cell_length_c                    41.99623117875482 
_cell_angle_alpha                 90.64264480533895 
_cell_angle_beta                  89.89348666673128 
_cell_angle_gamma                 122.18088179304982 
loop_ 
_atom_site_label 
_atom_site_type_symbol 
_atom_site_fract_x 
_atom_site_fract_y 
_atom_site_fract_z 
_atom_site_charge 
C1          C  0.54899134  0.85704521  0.00593173     0.79900
N2          N  0.56381651  0.87878576  0.47325892    -0.78400
C3          C  0.56451952  0.89983727  0.47515826     0.82300
N4          N  0.56309224  0.90841370  0.50399134    -0.78400
C5          C  0.54769182  0.88746587  0.03523221     0.82400
N6          N  0.54701604  0.86630462  0.03428363    -0.80100
C7          C  0.33852126  0.90174283  0.99994158     0.79900
N8          N  0.35010262  0.91368869  0.02731830    -0.78400
C9          C  0.37282455  0.93373154  0.02632176     0.82300
N10         N  0.38556309  0.94895879  0.50428312    -0.78400
C11         C  0.37467863  0.93856555  0.47605738     0.82400
N12         N  0.35219426  0.91834053  0.47624809    -0.80100
O13         O  0.54630234  0.01789720  0.32991162    -0.80500
O14         O  0.58792587  0.05711880  0.21158189    -0.80500
O15         O  0.52120932  0.98183488  0.22558664    -0.80500
O16         O  0.57900656  0.08294950  0.28156013    -0.80500
O17         O  0.55925966  0.00749689  0.21679106    -0.80600
O18         O  0.58040427  0.05042341  0.28880278    -0.80500
O19         O  0.58049016  0.08588967  0.21729230    -0.80500
O20         O  0.53856988  0.99536755  0.28655274    -0.80500
C21         C  0.54445243  0.99964657  0.31649389     1.09200
C22         C  0.59439883  0.07890104  0.20829778     1.09100
C23         C  0.54126244  0.98613885  0.21486822     1.09200
C24         C  0.59008612  0.07302482  0.29182552     1.09100
O25         O  0.54386417  0.05608155  0.31609277    -0.80500
O26         O  0.51996765  0.00917350  0.18573388    -0.80600
O27         O  0.49057255  0.97652311  0.27423033    -0.80500
O28         O  0.52893334  0.06423203  0.21419690    -0.80500
O29         O  0.54892653  0.05685716  0.17834609    -0.80500
O30         O  0.50743575  0.01213815  0.29843431    -0.80500
O31         O  0.52627193  0.06330020  0.27837695    -0.80500
O32         O  0.49727854  0.00761794  0.22584818    -0.80500
Co33       Co  0.54486335  0.03059442  0.29069613     1.51500
Co34       Co  0.55403212  0.03277052  0.20101786     1.51700
Co35       Co  0.51825932  0.00382764  0.25621986     1.51600
Co36       Co  0.55268982  0.07195521  0.24792863     1.51500
O37         O  0.54440276  0.03756395  0.24498948    -1.42400
C38         C  0.53026950  0.06328498  0.30764220     1.09100
C39         C  0.50011180  0.00602481  0.19613874     1.09200
C40         C  0.48929210  0.99027702  0.29452568     1.09200
C41         C  0.53438038  0.06350918  0.18555587     1.09100
C42         C  0.48414307  0.17070397  0.99855090     0.79900
N43         N  0.48422293  0.16022227  0.02641198    -0.78400
C44         C  0.48265363  0.13871970  0.02603304     0.82300
N45         N  0.48159441  0.12812081  0.99787273    -0.78400
C46         C  0.48157338  0.13776806  0.47535570     0.82400
N47         N  0.48455209  0.15992824  0.47467356    -0.80100
C48         C  0.74063448  0.19655143  0.49711010     0.79900
N49         N  0.72945199  0.18492977  0.46935948    -0.78400
C50         C  0.70720309  0.16426457  0.46964911     0.82300
N51         N  0.69636899  0.15544067  0.49806482    -0.78400
C52         C  0.70593535  0.16353935  0.02683448     0.82400
N53         N  0.72836118  0.18379980  0.02747490    -0.80100
O54         O  0.08579998  0.57809515  0.31218598    -0.80500
O55         O  0.03167469  0.54647033  0.18822175    -0.80500
O56         O  0.11305425  0.60267619  0.22047763    -0.80500
O57         O  0.02760590  0.56490822  0.29096627    -0.80500
O58         O  0.07613159  0.58408598  0.20011337    -0.80600
O59         O  0.03889758  0.54837309  0.32649743    -0.80500
O60         O  0.02563662  0.56455327  0.22702806    -0.80500
O61         O  0.08370218  0.59752593  0.27084044    -0.80500
C62         C  0.08710792  0.59660520  0.30033219     1.09200
C63         C  0.02389722  0.55950639  0.19785496     1.09100
C64         C  0.09808835  0.60246700  0.20110152     1.09200
C65         C  0.03008280  0.56110373  0.31963377     1.09100
O66         O  0.03857593  0.50861422  0.29451299    -0.80500
O67         O  0.07098515  0.54430901  0.17103092    -0.80600
O68         O  0.11153887  0.57554957  0.27084379    -0.80500
O69         O  0.00817084  0.51266695  0.22653342    -0.80500
O70         O  0.04134164  0.51259389  0.21655484    -0.80500
O71         O  0.08679908  0.53791155  0.28171412    -0.80500
O72         O  0.00817509  0.51381648  0.29142989    -0.80500
O73         O  0.09508748  0.55482442  0.21292050    -0.80500
Co74       Co  0.06234573  0.54315619  0.30099691     1.51500
Co75       Co  0.05942415  0.54756303  0.21108989     1.51700
Co76       Co  0.08717790  0.57587578  0.24200879     1.51600
Co77       Co  0.01944958  0.53996457  0.25858658     1.51500
O78         O  0.05445255  0.54995365  0.25749916    -1.42400
C79         C  0.01685402  0.50148645  0.30062920     1.09100
C80         C  0.09004070  0.54737799  0.18367657     1.09200
C81         C  0.10813026  0.55592829  0.28123960     1.09200
C82         C  0.01855340  0.50205956  0.21583121     1.09100
C83         C  0.22080711  0.52559024  0.99728951     0.79900
N84         N  0.21337609  0.53555822  0.46253544    -0.78400
C85         C  0.19581832  0.54074548  0.46168938     0.82300
N86         N  0.18534046  0.54140080  0.48928972    -0.78400
C87         C  0.19650834  0.53646580  0.02531300     0.82400
N88         N  0.21205849  0.52868404  0.02527319    -0.80100
C89         C  0.90254107  0.35075258  0.01142429     0.79900
N90         N  0.91696226  0.36448412  0.47919425    -0.78400
C91         C  0.93893124  0.38543789  0.48178589     0.82300
N92         N  0.94896683  0.39350194  0.51107246    -0.78400
C93         C  0.93486997  0.38267906  0.04039817     0.82400
N94         N  0.91321538  0.36145373  0.03964479    -0.80100
C95         C  0.90126581  0.58434150  0.50893157     0.79900
N96         N  0.91338863  0.59179149  0.03546470    -0.78400
C97         C  0.93570873  0.59473065  0.03526455     0.82300
N98         N  0.94605194  0.59136103  0.51092260    -0.78400
C99         C  0.93604697  0.59036263  0.48236492     0.82400
N100        N  0.91352711  0.58688027  0.48131624    -0.80100
C101        C  0.17109957  0.75088108  0.99517645     0.79900
N102        N  0.16629103  0.74171121  0.47074765    -0.78400
C103        C  0.14590825  0.71939224  0.46947388     0.82300
N104        N  0.12835670  0.70790534  0.99402933    -0.78400
C105        C  0.13974236  0.71720545  0.02232450     0.82400
N106        N  0.16120676  0.73869631  0.02257608    -0.80100
O107        O  0.54487600  0.50495304  0.18388023    -0.80500
O108        O  0.52058830  0.52636870  0.31331241    -0.80500
O109        O  0.55516977  0.48254141  0.27344860    -0.80500
O110        O  0.49421869  0.50513671  0.21155624    -0.80500
O111        O  0.53492765  0.49587026  0.29954277    -0.80600
O112        O  0.52082194  0.52753569  0.17534682    -0.80500
O113        O  0.49535630  0.50435816  0.27587487    -0.80500
O114        O  0.52603374  0.48168370  0.22514618    -0.80500
C115        C  0.53009690  0.48415209  0.19536880     1.09200
C116        C  0.49919218  0.51061846  0.30471092     1.09100
C117        C  0.54132956  0.48032898  0.29617799     1.09200
C118        C  0.49916787  0.51173827  0.18305137     1.09100
O119        O  0.55900413  0.57035284  0.20722246    -0.80500
O120        O  0.56744626  0.53956126  0.32605448    -0.80600
O121        O  0.57737787  0.51308141  0.22289519    -0.80500
O122        O  0.52341207  0.55737866  0.27689334    -0.80500
O123        O  0.56104279  0.56686632  0.28289922    -0.80500
O124        O  0.58513625  0.54895679  0.21396531    -0.80500
O125        O  0.52054484  0.55735196  0.21300780    -0.80500
O126        O  0.58097561  0.53080789  0.28278205    -0.80500
Co127      Co  0.55243033  0.53790610  0.19789695     1.51500
Co128      Co  0.54944142  0.53240218  0.28782789     1.51700
Co129      Co  0.55108056  0.50623286  0.25420461     1.51600
Co130      Co  0.50964754  0.53026031  0.24448625     1.51500
O131        O  0.53912808  0.52772809  0.24223060    -1.42400
C132        C  0.54164294  0.57347915  0.20370400     1.09100
C133        C  0.58420700  0.53881528  0.31189675     1.09200
C134        C  0.59159532  0.53400828  0.21207393     1.09200
C135        C  0.54527638  0.57254619  0.28509588     1.09100
C136        C  0.49043797  0.32877135  0.99880401     0.79900
N137        N  0.48839569  0.33804295  0.02700225    -0.78400
C138        C  0.48899446  0.35907393  0.02787607     0.82300
N139        N  0.49172988  0.37083118  0.00030108    -0.78400
C140        C  0.49351143  0.36138189  0.47572455     0.82400
N141        N  0.49438482  0.34113511  0.47504253    -0.80100
C142        C  0.34066954  0.47177928  0.99492127     0.79900
N143        N  0.35058539  0.47072382  0.02292200    -0.78400
C144        C  0.36857773  0.46616230  0.02295499     0.82300
N145        N  0.37716872  0.46358621  0.99491013    -0.78400
C146        C  0.37131331  0.47615052  0.46285697     0.82400
N147        N  0.35507362  0.48308596  0.46252708    -0.80100
C148        C  0.73402636  0.56473035  0.99923813     0.79900
N149        N  0.72263689  0.56238450  0.02747022    -0.78400
C150        C  0.70005904  0.55861450  0.02838154     0.82300
N151        N  0.68873627  0.55704078  0.00055283    -0.78400
C152        C  0.70129696  0.55539343  0.47583672     0.82400
N153        N  0.72386383  0.55904457  0.47616848    -0.80100
C154        C  0.55444252  0.70607180  0.99076918     0.79900
N155        N  0.55293190  0.69478852  0.01847094    -0.78400
C156        C  0.55500967  0.67525099  0.01864916     0.82300
N157        N  0.55838109  0.66691844  0.99061951    -0.78400
C158        C  0.55779869  0.67936176  0.46105400     0.82400
N159        N  0.55843914  0.70044583  0.46125547    -0.80100
C160        C  0.47835947  0.50121134  0.32666960    -0.20200
C161        C  0.48122361  0.50332993  0.36009567     0.36000
C162        C  0.46084720  0.49585523  0.37933815    -0.26200
C163        C  0.43780573  0.48644545  0.36589816     0.02400
C164        C  0.43476647  0.48371814  0.33269702     0.27200
C165        C  0.45502901  0.49100224  0.31342550    -0.25300
N166        N  0.50471696  0.51333807  0.37439619    -0.82700
H167        H  0.46297943  0.49787767  0.40498319     0.13000
C168        C  0.41734273  0.48062117  0.38710465     0.02400
N169        N  0.41118464  0.47386522  0.31874345    -0.81300
H170        H  0.45260551  0.48929709  0.28781242     0.17900
C171        C  0.40664729  0.49430775  0.38548354    -0.26100
C172        C  0.38989146  0.49196858  0.40854770     0.35900
C173        C  0.38390723  0.47559621  0.43374111    -0.20200
C174        C  0.39334362  0.46066533  0.43369186    -0.25400
C175        C  0.41000364  0.46303829  0.41066897     0.27300
H176        H  0.41231673  0.50769389  0.36705586     0.13000
N177        N  0.38033289  0.50726632  0.40755231    -0.82700
H178        H  0.38849106  0.44774488  0.45256253     0.17900
N179        N  0.42018039  0.44827487  0.41169751    -0.81300
H180        H  0.38780252  0.51926891  0.38861822     0.33500
H181        H  0.36181603  0.49626748  0.40269233     0.38000
H182        H  0.41311545  0.43640108  0.43080803     0.33500
H183        H  0.41475765  0.43767541  0.39094881     0.30200
H184        H  0.41207517  0.47327748  0.29391511     0.33500
H185        H  0.40034179  0.45602610  0.32620383     0.30200
H186        H  0.51070423  0.50174065  0.36917049     0.38000
H187        H  0.50362211  0.51387327  0.39920312     0.33500
C188        C  0.38176053  0.46784530  0.05239117    -0.20200
C189        C  0.39176066  0.45347660  0.05607828     0.36000
C190        C  0.40905594  0.45933162  0.08002107    -0.26200
C191        C  0.41659882  0.47927938  0.10014847     0.02400
C192        C  0.40544654  0.49264385  0.09797671     0.27200
C193        C  0.38793705  0.48666951  0.07418418    -0.25300
N194        N  0.38494829  0.43354320  0.03470991    -0.82700
H195        H  0.41756544  0.44902226  0.08203291     0.13000
C196        C  0.43766505  0.48715254  0.12134217     0.02400
N197        N  0.41263913  0.51273557  0.11918461    -0.81300
H198        H  0.38032996  0.49773752  0.07132980     0.17900
C199        C  0.45926968  0.50896742  0.11508487    -0.26100
C200        C  0.47995117  0.51706749  0.13408015     0.35900
C201        C  0.47896988  0.50285377  0.15986574    -0.20200
C202        C  0.45736212  0.48072201  0.16558057    -0.25400
C203        C  0.43670444  0.47273994  0.14657340     0.27300
H204        H  0.45990199  0.51978769  0.09533636     0.13000
N205        N  0.50159857  0.53992412  0.12771626    -0.82700
H206        H  0.45647406  0.46975828  0.18529078     0.17900
N207        N  0.41467697  0.45022528  0.15295625    -0.81300
H208        H  0.49941353  0.54769010  0.10742585     0.33500
H209        H  0.50419759  0.55148420  0.14671613     0.38000
H210        H  0.41699864  0.44172589  0.17228588     0.33500
H211        H  0.40165169  0.45406399  0.15971716     0.30200
H212        H  0.40291627  0.52085666  0.11422994     0.33500
H213        H  0.40794711  0.50599001  0.14226365     0.30200
H214        H  0.36655301  0.42089014  0.03814894     0.38000
H215        H  0.39416656  0.42502396  0.04039550     0.33500
C216        C  0.55142628  0.59557847  0.30113673    -0.20200
C217        C  0.53359932  0.60122173  0.30700305     0.36000
C218        C  0.53845024  0.61987419  0.32838884    -0.26200
C219        C  0.56087637  0.63336694  0.34385336     0.02400
C220        C  0.57963900  0.62978726  0.33521636     0.27200
C221        C  0.57471443  0.61084324  0.31410613    -0.25300
N222        N  0.51012655  0.58744728  0.29250631    -0.82700
H223        H  0.52400549  0.62268718  0.33456869     0.13000
C224        C  0.56288970  0.64769883  0.37270366     0.02400
N225        N  0.60331558  0.64479736  0.34902503    -0.81300
H226        H  0.58881597  0.60728712  0.30911817     0.17900
C227        C  0.56780559  0.64096160  0.40184970    -0.26100
C228        C  0.56670778  0.65130040  0.43062895     0.35900
C229        C  0.56051456  0.66895566  0.43070488    -0.20200
C230        C  0.55636203  0.67631279  0.40127668    -0.25400
C231        C  0.55742588  0.66581142  0.37229777     0.27300
H232        H  0.57175777  0.62687284  0.40243162     0.13000
N233        N  0.57188156  0.64362539  0.45967901    -0.82700
H234        H  0.55171484  0.68988753  0.40085574     0.17900
N235        N  0.55270774  0.67321835  0.34255617    -0.81300
H236        H  0.55972332  0.62504557  0.46167265     0.33500
H237        H  0.58934766  0.64684723  0.45817373     0.38000
H238        H  0.54886337  0.68662629  0.34633635     0.33500
H239        H  0.56860230  0.68099800  0.32918893     0.30200
H240        H  0.61505976  0.63976763  0.34042454     0.33500
H241        H  0.61013853  0.66239419  0.34138137     0.30200
H242        H  0.49722178  0.57992061  0.31058958     0.38000
H243        H  0.50714807  0.59921281  0.27967193     0.33500
C244        C  0.55307775  0.66260754  0.04886591    -0.20200
C245        C  0.56015639  0.67476689  0.07872933     0.36000
C246        C  0.55827534  0.66188057  0.10637852    -0.26200
C247        C  0.54962423  0.63723296  0.10480981     0.02400
C248        C  0.54230439  0.62499047  0.07525134     0.27200
C249        C  0.54417524  0.63778835  0.04762652    -0.25300
N250        N  0.56978523  0.70020617  0.08087370    -0.82700
H251        H  0.56398342  0.67115444  0.12920006     0.13000
C252        C  0.54924100  0.62444381  0.13392550     0.02400
N253        N  0.53278243  0.59953976  0.07349494    -0.81300
H254        H  0.53851244  0.62825003  0.02498304     0.17900
C255        C  0.52833780  0.61275322  0.15263106    -0.26100
C256        C  0.52624563  0.59770438  0.17768857     0.35900
C257        C  0.54522073  0.59384252  0.18379691    -0.20200
C258        C  0.56693508  0.60733751  0.16667802    -0.25400
C259        C  0.56908430  0.62250068  0.14176409     0.27300
H260        H  0.51325528  0.61467453  0.14707039     0.13000
N261        N  0.50455247  0.58590243  0.19619330    -0.82700
H262        H  0.58188321  0.60504212  0.17141004     0.17900
N263        N  0.59113596  0.63549048  0.12386380    -0.81300
H264        H  0.50232349  0.59914306  0.20663186     0.33500
H265        H  0.48994523  0.57552817  0.18077493     0.38000
H266        H  0.60414253  0.63241538  0.13294848     0.33500
H267        H  0.58745954  0.62861971  0.10058467     0.30200
H268        H  0.52778915  0.59313896  0.05010948     0.33500
H269        H  0.54664840  0.59685064  0.07974645     0.30200
H270        H  0.58621227  0.70900146  0.06863616     0.38000
H271        H  0.57378272  0.70623137  0.10452750     0.33500
C272        C  0.68835779  0.55306989  0.44568759    -0.20200
C273        C  0.66362412  0.53493097  0.44228373     0.36000
C274        C  0.65045584  0.53531905  0.41618583    -0.26200
C275        C  0.66142774  0.55331837  0.39320888     0.02400
C276        C  0.68641314  0.57073681  0.39547696     0.27200
C277        C  0.69973047  0.57042421  0.42177072    -0.25300
N278        N  0.65190970  0.51628255  0.46560761    -0.82700
H279        H  0.63132976  0.52174556  0.41401911     0.13000
C280        C  0.64581092  0.55349153  0.36769174     0.02400
N281        N  0.69795958  0.58885904  0.37150939    -0.81300
H282        H  0.71871581  0.58431380  0.42431723     0.17900
C283        C  0.63647722  0.56834862  0.37116905    -0.26100
C284        C  0.61719237  0.56481600  0.35192896     0.35900
C285        C  0.60713136  0.54620727  0.32876609    -0.20200
C286        C  0.61785486  0.53271893  0.32361941    -0.25400
C287        C  0.63698156  0.53606759  0.34303320     0.27300
H288        H  0.64329867  0.58185930  0.39000720     0.13000
N289        N  0.60768446  0.57993273  0.35621266    -0.82700
H290        H  0.61033421  0.51851596  0.30568097     0.17900
N291        N  0.64671253  0.52105508  0.33893036    -0.81300
H292        H  0.60198260  0.57847441  0.37981291     0.33500
H293        H  0.62172084  0.59776939  0.35256803     0.38000
H294        H  0.63803464  0.50885226  0.32007076     0.33500
H295        H  0.66485777  0.53220200  0.33246043     0.30200
H296        H  0.71636111  0.60037627  0.37673417     0.33500
H297        H  0.69690212  0.58011700  0.35003477     0.30200
H298        H  0.66839943  0.50934899  0.95240144     0.38000
H299        H  0.63368040  0.50442415  0.45974317     0.33500
C300        C  0.61341878  0.53987859  0.19323813    -0.20200
C301        C  0.62951778  0.56342368  0.18171446     0.36000
C302        C  0.64615674  0.56701573  0.15776874    -0.26200
C303        C  0.64733795  0.54776017  0.14524977     0.02400
C304        C  0.63301089  0.52475689  0.15886008     0.27200
C305        C  0.61628430  0.52108028  0.18282368    -0.25300
N306        N  0.62838181  0.58348278  0.19345486    -0.82700
H307        H  0.65765818  0.58479865  0.14784280     0.13000
C308        C  0.66169613  0.55149041  0.11586406     0.02400
N309        N  0.63464201  0.50496626  0.14724184    -0.81300
H310        H  0.60436994  0.50307813  0.19185384     0.17900
C311        C  0.68027863  0.54675871  0.11566810    -0.26100
C312        C  0.69322718  0.54913453  0.08765481     0.35900
C313        C  0.68768716  0.55656489  0.05917778    -0.20200
C314        C  0.66929740  0.56163224  0.05971544    -0.25400
C315        C  0.65618274  0.55902108  0.08753813     0.27300
H316        H  0.68457764  0.54091999  0.13730370     0.13000
N317        N  0.71143213  0.54326518  0.08814311    -0.82700
H318        H  0.66490217  0.56748274  0.03818310     0.17900
N319        N  0.63691682  0.56354440  0.08698409    -0.81300
H320        H  0.70335889  0.52539430  0.09538865     0.33500
H321        H  0.72443762  0.55430373  0.10518003     0.38000
H322        H  0.63526033  0.56910480  0.06441439     0.33500
H323        H  0.62073784  0.54721645  0.09123554     0.30200
H324        H  0.62303310  0.48931145  0.15990319     0.33500
H325        H  0.62858381  0.50153631  0.12361781     0.30200
H326        H  0.63326225  0.58590002  0.21753605     0.38000
H327        H  0.64108591  0.59937462  0.18203118     0.33500
C328        C  0.49928681  0.37683779  0.44699964    -0.20200
C329        C  0.50607490  0.37162788  0.41741800     0.36000
C330        C  0.51209638  0.38742138  0.39171556    -0.25300
C331        C  0.51181856  0.40862149  0.39478380     0.02400
C332        C  0.50504245  0.41389685  0.42419807     0.27200
C333        C  0.49862132  0.39791401  0.44967065    -0.25300
N334        N  0.50706097  0.35046803  0.41318010    -0.82700
H335        H  0.51705489  0.38307510  0.36916462     0.13000
C336        C  0.51877953  0.42533314  0.36732404     0.02400
N337        N  0.50515691  0.43576117  0.42832809    -0.81300
H338        H  0.49349924  0.40235231  0.47199897     0.17900
C339        C  0.50293019  0.43231537  0.35720418    -0.26100
C340        C  0.50964717  0.44969304  0.33351695     0.35900
C341        C  0.53253560  0.46017608  0.31899767    -0.20200
C342        C  0.54789599  0.45224731  0.32783633    -0.25400
C343        C  0.54140114  0.43516044  0.35208090     0.27300
H344        H  0.48530334  0.42449286  0.36816704     0.13000
N345        N  0.49297239  0.45636891  0.32401835    -0.82700
H346        H  0.56550588  0.46021750  0.31679194     0.17900
N347        N  0.55799547  0.42834369  0.36191824    -0.81300
H348        H  0.47727322  0.44090277  0.31551919     0.33500
H349        H  0.48829548  0.46238512  0.34426103     0.38000
H350        H  0.57376277  0.43711374  0.34828756     0.33500
H351        H  0.56315267  0.43433866  0.38541485     0.30200
H352        H  0.49954928  0.43690576  0.45125573     0.33500
H353        H  0.52305247  0.45019997  0.42620648     0.30200
H354        H  0.52466982  0.35584900  0.40655429     0.38000
H355        H  0.49541242  0.34024791  0.39446342     0.33500
C356        C  0.51915936  0.46260429  0.17376648    -0.20200
C357        C  0.51810891  0.46488172  0.14041710     0.36000
C358        C  0.50984491  0.44462704  0.12054581    -0.26200
C359        C  0.50166955  0.42172883  0.13283125     0.02400
C360        C  0.50220456  0.41919777  0.16614971     0.27200
C361        C  0.51097021  0.43964976  0.18623383    -0.25300
N362        N  0.52542625  0.48774090  0.12661153    -0.82700
H363        H  0.51000613  0.44681483  0.09499618     0.13000
C364        C  0.49378344  0.40127584  0.10975923     0.02400
N365        N  0.49399951  0.39598622  0.17945254    -0.81300
H366        H  0.51181977  0.43770181  0.21169667     0.17900
C367        C  0.50431672  0.38735513  0.11082794    -0.26100
C368        C  0.50105916  0.37141447  0.08568954     0.35900
C369        C  0.48788309  0.37022946  0.05831773    -0.20200
C370        C  0.47583481  0.38268094  0.05845226    -0.25400
C371        C  0.47814931  0.39767903  0.08413329     0.27300
H372        H  0.51620776  0.38987639  0.13045647     0.13000
N373        N  0.51243983  0.35777414  0.08701951    -0.82700
H374        H  0.46510459  0.38125342  0.03790820     0.17900
N375        N  0.46537451  0.41000681  0.08378974    -0.81300
H376        H  0.52242578  0.36164719  0.10808615     0.33500
H377        H  0.49867504  0.33957228  0.08810535     0.38000
H378        H  0.45482562  0.40562087  0.06316329     0.33500
H379        H  0.45341444  0.40373135  0.10299955     0.30200
H380        H  0.49580332  0.39723791  0.20424891     0.33500
H381        H  0.47551479  0.38485435  0.17447578     0.30200
H382        H  0.51282037  0.49204619  0.13360486     0.38000
H383        H  0.52448440  0.48647636  0.10175474     0.33500
C384        C  0.87684086  0.58095960  0.50830504    -0.20200
C385        C  0.87132213  0.59440383  0.48787414     0.36000
C386        C  0.84807828  0.59090770  0.48866498    -0.26200
C387        C  0.82995780  0.57792879  0.00315767     0.02400
C388        C  0.83584548  0.56424450  0.98338366     0.27200
C389        C  0.85909734  0.56787478  0.98522336    -0.25300
N390        N  0.88943607  0.61188698  0.46687198    -0.82700
H391        H  0.84379310  0.60119283  0.47306088     0.13000
C392        C  0.80540166  0.57449857  0.00210347     0.02400
N393        N  0.81804448  0.54640124  0.96189032    -0.81300
H394        H  0.86344793  0.55725895  0.97000203     0.17900
C395        C  0.78832225  0.55388323  0.48768480    -0.26100
C396        C  0.76513120  0.55041632  0.48575490     0.35900
C397        C  0.75874822  0.56827733  0.99928645    -0.20200
C398        C  0.76802519  0.56534185  0.02799894    -0.25400
C399        C  0.79095806  0.56820132  0.02963338     0.27300
H400        H  0.79279608  0.54328461  0.47262406     0.13000
N401        N  0.74724740  0.53250590  0.46441205    -0.82700
H402        H  0.75723853  0.56045322  0.04942034     0.17900
N403        N  0.79951584  0.56439782  0.05913699    -0.81300
H404        H  0.75435608  0.52389545  0.45164758     0.33500
H405        H  0.73318792  0.51930536  0.47826156     0.38000
H406        H  0.78683194  0.55995150  0.07721642     0.33500
H407        H  0.80115890  0.54949719  0.05591811     0.30200
H408        H  0.82523036  0.53792555  0.94898014     0.33500
H409        H  0.80399202  0.53309245  0.97563421     0.30200
H410        H  0.90325653  0.62545233  0.48100693     0.38000
H411        H  0.88243008  0.62011956  0.45336898     0.33500
C412        C  0.23806293  0.51713302  0.99725949    -0.20200
C413        C  0.24170998  0.50676198  0.02438433     0.36000
C414        C  0.25791937  0.49890101  0.02306553    -0.26200
C415        C  0.27120343  0.50151116  0.99547776     0.02400
C416        C  0.27451733  0.52767011  0.46551041     0.27200
C417        C  0.25607689  0.53266783  0.46598290    -0.25300
N418        N  0.22888244  0.50384755  0.05337656    -0.82700
H419        H  0.26012611  0.49063580  0.04390367     0.13000
C420        C  0.28880749  0.49357026  0.99567011     0.02400
N421        N  0.29137954  0.53563737  0.43958585    -0.81300
H422        H  0.25477406  0.54264357  0.44654016     0.17900
C423        C  0.29288510  0.49143556  0.46750172    -0.26100
C424        C  0.30935046  0.48390139  0.46708756     0.35900
C425        C  0.32206388  0.47826619  0.99514867    -0.20200
C426        C  0.32305755  0.49385504  0.01915693    -0.25400
C427        C  0.30690540  0.50184361  0.01944468     0.27300
H428        H  0.27826233  0.48391726  0.45021973     0.13000
N429        N  0.30641244  0.46615898  0.44420960    -0.82700
H430        H  0.33704713  0.50051943  0.03726651     0.17900
N431        N  0.30915605  0.51875225  0.04342875    -0.81300
H432        H  0.28921639  0.45071827  0.44719364     0.33500
H433        H  0.30714230  0.47283720  0.42146978     0.38000
H434        H  0.32325876  0.52292552  0.05922992     0.33500
H435        H  0.31389530  0.53475733  0.03198589     0.30200
H436        H  0.28747964  0.54479443  0.42283856     0.33500
H437        H  0.30853964  0.54810188  0.44882331     0.30200
H438        H  0.21902208  0.48554607  0.05898636     0.38000
H439        H  0.24157498  0.51315088  0.07152594     0.33500
C440        C  0.94892045  0.59639091  0.06485226    -0.20200
C441        C  0.97447438  0.60900467  0.06490731     0.36000
C442        C  0.98665638  0.60467237  0.08869717    -0.26200
C443        C  0.97383656  0.58803590  0.11269357     0.02400
C444        C  0.94849165  0.57695936  0.11447399     0.27200
C445        C  0.93623497  0.58140894  0.09057910    -0.25300
N446        N  0.98809800  0.62567483  0.04014903    -0.82700
H447        H  0.00618117  0.61362099  0.08770373     0.13000
C448        C  0.98708680  0.58115537  0.13422234     0.02400
N449        N  0.93525098  0.56042313  0.13965362    -0.81300
H450        H  0.91665183  0.57167602  0.09070574     0.17900
C451        C  0.99158221  0.58951493  0.16573051    -0.26100
C452        C  0.00439145  0.58357361  0.18662195     0.35900
C453        C  0.01231195  0.56823917  0.17588133    -0.20200
C454        C  0.00807569  0.56029517  0.14397938    -0.25400
C455        C  0.99558476  0.56662313  0.12307495     0.27300
H456        H  0.98528869  0.60097556  0.17390923     0.13000
N457        N  0.00929316  0.59311860  0.21861800    -0.82700
H458        H  0.01414194  0.54874645  0.13539550     0.17900
N459        N  0.99126237  0.55818158  0.09057644    -0.81300
H460        H  0.00144951  0.60323533  0.22286388     0.33500
H461        H  0.02799460  0.60512013  0.22069001     0.38000
H462        H  0.99881269  0.54783699  0.08601024     0.33500
H463        H  0.97256872  0.54671219  0.08749795     0.30200
H464        H  0.91678756  0.55384919  0.13759065     0.33500
H465        H  0.93708053  0.54560859  0.13682290     0.30200
H466        H  0.99832459  0.61982165  0.02866645     0.38000
H467        H  0.00007963  0.64244326  0.05074261     0.33500
C468        C  0.94956367  0.59103980  0.45352077    -0.20200
C469        C  0.93853178  0.57369034  0.42879835     0.36000
C470        C  0.95321019  0.57071411  0.40696211    -0.26200
C471        C  0.97854988  0.58498350  0.40911818     0.02400
C472        C  0.98953693  0.60340728  0.43232179     0.27200
C473        C  0.97495006  0.60624454  0.45426801    -0.25300
N474        N  0.91264979  0.55815522  0.42715969    -0.82700
H475        H  0.94491571  0.55678526  0.38870786     0.13000
C476        C  0.99342420  0.57988205  0.38772800     0.02400
N477        N  0.01547022  0.61861766  0.43411710    -0.81300
H478        H  0.98349499  0.61963152  0.47314934     0.17900
C479        C  0.00488482  0.59474616  0.36161208    -0.26100
C480        C  0.01821357  0.58980543  0.34000353     0.35900
C481        C  0.02011429  0.56951058  0.34471999    -0.20200
C482        C  0.00966413  0.55541031  0.37191403    -0.25400
C483        C  0.99626835  0.56037608  0.39343380     0.27300
H484        H  0.00301183  0.60999265  0.35778900     0.13000
N485        N  0.02944686  0.60508309  0.31299762    -0.82700
H486        H  0.01099384  0.53982670  0.37562804     0.17900
N487        N  0.98508349  0.54541812  0.42070321    -0.81300
H488        H  0.02596506  0.61890494  0.31275317     0.33500
H489        H  0.04813834  0.61339130  0.31568177     0.38000
H490        H  0.98864538  0.53165571  0.42130444     0.33500
H491        H  0.99316609  0.55610166  0.44103972     0.30200
H492        H  0.02070173  0.63139165  0.45245714     0.33500
H493        H  0.02217859  0.60780573  0.44010832     0.30200
H494        H  0.90574932  0.56887387  0.42161432     0.38000
H495        H  0.90754770  0.54570758  0.40842384     0.33500
C496        C  0.00420626  0.47924242  0.19746992    -0.20200
C497        C  0.01204325  0.46307722  0.19187406     0.36000
C498        C  0.99950038  0.44405040  0.16995731    -0.26200
C499        C  0.97972408  0.44116036  0.15267065     0.02400
C500        C  0.97132075  0.45664949  0.15910476     0.27200
C501        C  0.98331027  0.47511107  0.18186891    -0.25300
N502        N  0.03257124  0.46543948  0.20788860    -0.82700
H503        H  0.00579482  0.43197490  0.16547989     0.13000
C504        C  0.96896135  0.42326354  0.12615969     0.02400
N505        N  0.95134230  0.45433600  0.14137110    -0.81300
H506        H  0.97718531  0.48738330  0.18575550     0.17900
C507        C  0.94382618  0.40707704  0.12516548    -0.26100
C508        C  0.93232918  0.39348604  0.09764568     0.35900
C509        C  0.94625337  0.39498168  0.07101841    -0.20200
C510        C  0.97158423  0.40995250  0.07284952    -0.25400
C511        C  0.98308567  0.42438166  0.09993775     0.27300
H512        H  0.93287839  0.40611663  0.14521322     0.13000
N513        N  0.90645876  0.37954952  0.09620043    -0.82700
H514        H  0.98241795  0.41110579  0.05256632     0.17900
N515        N  0.00888951  0.44089917  0.10030906    -0.81300
H516        H  0.90026384  0.39114968  0.10008031     0.33500
H517        H  0.90012158  0.36713703  0.11471953     0.38000
H518        H  0.01656517  0.43937218  0.07925065     0.33500
H519        H  0.01227156  0.45838085  0.10095088     0.30200
H520        H  0.94733260  0.46702308  0.14914922     0.33500
H521        H  0.95672294  0.45830576  0.11761845     0.30200
H522        H  0.03035638  0.46630374  0.23243178     0.38000
H523        H  0.04821317  0.48127911  0.20066547     0.33500
C524        C  0.00304219  0.48101970  0.32291655    -0.20200
C525        C  0.98240192  0.47743935  0.33939355     0.36000
C526        C  0.97290711  0.46111206  0.36468590    -0.26200
C527        C  0.98314489  0.44793560  0.37360317     0.02400
C528        C  0.00299087  0.45060156  0.35658463     0.27200
C529        C  0.01269534  0.46703714  0.33136072    -0.25300
N530        N  0.97161151  0.49094207  0.33134171    -0.82700
H531        H  0.95751839  0.45878080  0.37784075     0.13000
C532        C  0.97311401  0.43190338  0.40145792     0.02400
N533        N  0.01357533  0.43708358  0.36555068    -0.81300
H534        H  0.02844617  0.46954848  0.31901204     0.17900
C535        C  0.95920074  0.40686183  0.39679668    -0.26100
C536        C  0.94803125  0.39128683  0.42258648     0.35900
C537        C  0.95099883  0.40086831  0.45369128    -0.20200
C538        C  0.96553445  0.42601275  0.45826236    -0.25400
C539        C  0.97650996  0.44160221  0.43248192     0.27300
H540        H  0.95664606  0.39939693  0.37293345     0.13000
N541        N  0.93392922  0.36579162  0.41705704    -0.82700
H542        H  0.96793044  0.43364454  0.48198822     0.17900
N543        N  0.99083577  0.46726442  0.43756516    -0.81300
H544        H  0.94502182  0.36074986  0.40618601     0.33500
H545        H  0.92002551  0.36200440  0.40110822     0.38000
H546        H  0.99134190  0.47151684  0.46173836     0.33500
H547        H  0.00860397  0.47322982  0.43100613     0.30200
H548        H  0.02804054  0.44106513  0.35060717     0.33500
H549        H  0.02080312  0.44274380  0.38846196     0.30200
H550        H  0.96377964  0.48508722  0.30875557     0.38000
H551        H  0.95749380  0.48706837  0.34689592     0.33500
C552        C  0.10665880  0.54265265  0.16559513    -0.20200
C553        C  0.09918112  0.52779404  0.13801373     0.36000
C554        C  0.11635157  0.52571563  0.12049037    -0.26200
C555        C  0.14077518  0.53839009  0.12961926     0.02400
C556        C  0.14825203  0.55291393  0.15727358     0.27200
C557        C  0.13104101  0.55456198  0.17531306    -0.25300
N558        N  0.07442372  0.51536871  0.12740794    -0.82700
H559        H  0.11091340  0.51503172  0.09871560     0.13000
C560        C  0.15856824  0.53985203  0.10653918     0.02400
N561        N  0.17345612  0.56701542  0.16581470    -0.81300
H562        H  0.13697400  0.56618846  0.19622426     0.17900
C563        C  0.16587236  0.55681712  0.08242749    -0.26100
C564        C  0.17961617  0.55696276  0.05676021     0.35900
C565        C  0.18618201  0.53959392  0.05508314    -0.20200
C566        C  0.18025567  0.52358657  0.08047631    -0.25400
C567        C  0.16628349  0.52345872  0.10624370     0.27300
H568        H  0.15998887  0.56946766  0.08308329     0.13000
N569        N  0.18639095  0.57433848  0.03192817    -0.82700
H570        H  0.18531545  0.51031817  0.07933239     0.17900
N571        N  0.15893428  0.50609710  0.13116645    -0.81300
H572        H  0.17974964  0.58548131  0.03651278     0.33500
H573        H  0.20525917  0.58543346  0.03211437     0.38000
H574        H  0.16574280  0.49504269  0.12705798     0.33500
H575        H  0.16684335  0.51551168  0.15238222     0.30200
H576        H  0.17606779  0.57741467  0.18623788     0.33500
H577        H  0.17882400  0.55510166  0.17171521     0.30200
H578        H  0.06388424  0.50263038  0.14461538     0.38000
H579        H  0.07215414  0.50575432  0.10630347     0.33500
C580        C  0.18685713  0.54423923  0.43107009    -0.20200
C581        C  0.20211965  0.55542618  0.40460760     0.36000
C582        C  0.19224755  0.55793483  0.37616375    -0.26200
C583        C  0.16755829  0.54956149  0.37387563     0.02400
C584        C  0.15246648  0.53881636  0.40044056     0.27200
C585        C  0.16223598  0.53621330  0.42863430    -0.25300
N586        N  0.22754473  0.56454312  0.40684343    -0.82700
H587        H  0.20377353  0.56643760  0.35574783     0.13000
C588        C  0.15721314  0.55221321  0.34399116     0.02400
N589        N  0.12721998  0.53065078  0.39863275    -0.81300
H590        H  0.15043922  0.52765715  0.44881109     0.17900
C591        C  0.13953372  0.53134837  0.32787757    -0.26100
C592        C  0.12473567  0.53242199  0.30473292     0.35900
C593        C  0.12763654  0.55478682  0.29746510    -0.20200
C594        C  0.14726858  0.57596221  0.31086054    -0.25400
C595        C  0.16196459  0.57487152  0.33440649     0.27300
H596        H  0.13616493  0.51394314  0.33479117     0.13000
N597        N  0.10611807  0.51061866  0.28968166    -0.82700
H598        H  0.14987010  0.59324934  0.30508448     0.17900
N599        N  0.18065124  0.59650322  0.34995741    -0.81300
H600        H  0.11428274  0.50246276  0.27837113     0.33500
H601        H  0.09471788  0.49902389  0.30739777     0.38000
H602        H  0.18188819  0.61166311  0.34000283     0.33500
H603        H  0.17558611  0.59598514  0.37371023     0.30200
H604        H  0.11855084  0.52294419  0.42011269     0.33500
H605        H  0.12603733  0.54578064  0.39541306     0.30200
H606        H  0.23498627  0.57850437  0.42378474     0.38000
H607        H  0.23613556  0.57215738  0.38528956     0.33500
C608        C  0.10478365  0.62312828  0.18022084    -0.20200
C609        C  0.12818316  0.63753348  0.16724145     0.36000
C610        C  0.13243264  0.65489038  0.14441444    -0.26200
C611        C  0.11389675  0.65822520  0.13449444     0.02400
C612        C  0.09080258  0.64446040  0.14830404     0.27200
C613        C  0.08647889  0.62702655  0.17090428    -0.25300
N614        N  0.14710611  0.63357331  0.17571611    -0.82700
H615        H  0.15007431  0.66529387  0.13340811     0.13000
C616        C  0.11846457  0.67458063  0.10757951     0.02400
N617        N  0.07174248  0.64796313  0.13888120    -0.81300
H618        H  0.06853898  0.61612972  0.18096400     0.17900
C619        C  0.10454837  0.66508097  0.07977703    -0.26100
C620        C  0.11017497  0.67894704  0.05225551     0.35900
C621        C  0.13051112  0.70289867  0.05213318    -0.20200
C622        C  0.14347188  0.71278096  0.08079517    -0.25400
C623        C  0.13758223  0.69890835  0.10848665     0.27300
H624        H  0.08968636  0.64641555  0.07901177     0.13000
N625        N  0.09543225  0.66824154  0.02442652    -0.82700
H626        H  0.15871024  0.73123790  0.08152724     0.17900
N627        N  0.15116195  0.70926785  0.13740284    -0.81300
H628        H  0.07764790  0.66277131  0.03019054     0.33500
H629        H  0.09570131  0.65290423  0.01819316     0.38000
H630        H  0.16470594  0.72734653  0.13411805     0.33500
H631        H  0.13933108  0.70904030  0.15440991     0.30200
H632        H  0.05574670  0.63616686  0.15097995     0.33500
H633        H  0.07684602  0.66541183  0.14586248     0.30200
H634        H  0.15188827  0.63916387  0.19940172     0.38000
H635        H  0.16262928  0.64450884  0.16227191     0.33500
C636        C  0.13403634  0.70839922  0.43887304    -0.20200
C637        C  0.10891957  0.69146083  0.43721134     0.36000
C638        C  0.09936369  0.67568558  0.41093178    -0.26200
C639        C  0.11463245  0.67595628  0.38713578     0.02400
C640        C  0.13944192  0.69438819  0.38748326     0.27200
C641        C  0.14873010  0.71084921  0.41303377    -0.25300
N642        N  0.09350179  0.68957371  0.46298176    -0.82700
H643        H  0.08019783  0.66205797  0.41005756     0.13000
C644        C  0.10519820  0.65535255  0.36443130     0.02400
N645        N  0.15547266  0.69527433  0.36323553    -0.81300
H646        H  0.16802379  0.72392869  0.41438549     0.17900
C647        C  0.10951617  0.65970698  0.33172240    -0.26100
C648        C  0.10411332  0.64096288  0.31015233     0.35900
C649        C  0.09317684  0.61719275  0.32149128    -0.20200
C650        C  0.08774225  0.61271228  0.35395567    -0.25400
C651        C  0.09383553  0.63148925  0.37561077     0.27300
H652        H  0.11795822  0.67797803  0.32317459     0.13000
N653        N  0.11035416  0.64614298  0.27710788    -0.82700
H654        H  0.07897665  0.59444235  0.36263486     0.17900
N655        N  0.08909921  0.62643419  0.40899335    -0.81300
H656        H  0.12374906  0.64242830  0.27212070     0.33500
H657        H  0.11804122  0.66448469  0.27277429     0.38000
H658        H  0.08021937  0.60792325  0.41306360     0.33500
H659        H  0.10577525  0.63444862  0.42076190     0.30200
H660        H  0.17304555  0.71007095  0.36688586     0.33500
H661        H  0.15633953  0.67988352  0.36542355     0.30200
H662        H  0.09394408  0.70573571  0.46417321     0.38000
H663        H  0.07555158  0.67591957  0.45829090     0.33500
C664        C  0.76504022  0.21923177  0.49686968    -0.20200
C665        C  0.77373834  0.23473343  0.47030304     0.36000
C666        C  0.79693151  0.25587913  0.47152536    -0.26200
C667        C  0.81171556  0.26203270  0.49860175     0.02400
C668        C  0.80252064  0.24208522  0.03044634     0.27200
C669        C  0.77948358  0.22091033  0.02761384    -0.25300
N670        N  0.75888494  0.22937729  0.44244000    -0.82700
H671        H  0.80331717  0.26797694  0.45147007     0.13000
C672        C  0.83564855  0.28521244  0.49948728     0.02400
N673        N  0.81785207  0.24575886  0.05723287    -0.81300
H674        H  0.77346153  0.20733128  0.04583029     0.17900
C675        C  0.83920471  0.29903853  0.03319243    -0.26100
C676        C  0.86112892  0.32153438  0.03453017     0.35900
C677        C  0.87890892  0.32742495  0.01091416    -0.20200
C678        C  0.87559817  0.31334004  0.47769365    -0.25400
C679        C  0.85326812  0.29118021  0.47572888     0.27300
H680        H  0.82537682  0.29463753  0.05086948     0.13000
N681        N  0.86503459  0.33859517  0.05924284    -0.82700
H682        H  0.88924357  0.31773210  0.45974581     0.17900
N683        N  0.84859131  0.27454385  0.45005447    -0.81300
H684        H  0.85034145  0.33134378  0.07481753     0.33500
H685        H  0.86592512  0.35333059  0.04842851     0.38000
H686        H  0.86331403  0.28167769  0.43454125     0.33500
H687        H  0.84685531  0.25912604  0.45989724     0.30200
H688        H  0.80922660  0.23116405  0.07269561     0.33500
H689        H  0.83312608  0.24624762  0.04857363     0.30200
H690        H  0.74408773  0.23056116  0.44894870     0.38000
H691        H  0.76817824  0.24229945  0.42490455     0.33500
C692        C  0.48936488  0.30541334  0.99825668    -0.20200
C693        C  0.50945346  0.30507590  0.48482041     0.36000
C694        C  0.50908441  0.28341707  0.48354122    -0.26200
C695        C  0.49030455  0.26247560  0.49770533     0.02400
C696        C  0.47561505  0.26659564  0.02359710     0.27200
C697        C  0.47751593  0.28901508  0.02315398    -0.25300
N698        N  0.52919839  0.32661244  0.47106172    -0.82700
H699        H  0.52369481  0.28293707  0.47205129     0.13000
C700        C  0.49106901  0.24028374  0.49786742     0.02400
N701        N  0.46302086  0.25000029  0.04898773    -0.81300
H702        H  0.46933484  0.29351593  0.04219858     0.17900
C703        C  0.49546189  0.23205895  0.02410514    -0.26100
C704        C  0.49584306  0.21079744  0.02442390     0.35900
C705        C  0.48517348  0.19398076  0.99890126    -0.20200
C706        C  0.48646517  0.20477697  0.47184052    -0.25400
C707        C  0.48740114  0.22668271  0.46992806     0.27300
H708        H  0.50381167  0.24501351  0.04348711     0.13000
N709        N  0.50753312  0.20659149  0.05023103    -0.82700
H710        H  0.48300620  0.19415477  0.45031304     0.17900
N711        N  0.48420277  0.23495424  0.43988157    -0.81300
H712        H  0.51420003  0.22055258  0.06712784     0.33500
H713        H  0.52254909  0.20691016  0.04087517     0.38000
H714        H  0.48183525  0.22295251  0.42155045     0.33500
H715        H  0.46820143  0.23493500  0.44110575     0.30200
H716        H  0.45655024  0.25729942  0.06546041     0.33500
H717        H  0.44786101  0.23471223  0.03908435     0.30200
H718        H  0.53839713  0.33896245  0.48961807     0.38000
H719        H  0.54157637  0.32314383  0.46052770     0.33500
C720        C  0.61610759  0.09510845  0.18891983    -0.20200
C721        C  0.62126855  0.11800701  0.17902526     0.36000
C722        C  0.63807138  0.13000418  0.15461345    -0.26200
C723        C  0.65003087  0.11989857  0.14025773     0.02400
C724        C  0.64626434  0.09801502  0.15135838     0.27200
C725        C  0.62954017  0.08595019  0.17585802    -0.25300
N726        N  0.60874568  0.12856982  0.19263413    -0.82700
H727        H  0.64127468  0.14695595  0.14588612     0.13000
C728        C  0.66448678  0.13120773  0.11148002     0.02400
N729        N  0.65863035  0.08764194  0.13670812    -0.81300
H730        H  0.62596345  0.06859614  0.18335596     0.17900
C731        C  0.68978064  0.14396673  0.11309857    -0.26100
C732        C  0.70379597  0.15478544  0.08586672     0.35900
C733        C  0.69227030  0.15264938  0.05649760    -0.20200
C734        C  0.66684819  0.13969870  0.05513483    -0.25400
C735        C  0.65285811  0.12899360  0.08231684     0.27300
H736        H  0.69864981  0.14552045  0.13558323     0.13000
N737        N  0.72962249  0.16743760  0.08807941    -0.82700
H738        H  0.65777549  0.13806469  0.03280930     0.17900
N739        N  0.62687241  0.11589986  0.08052579    -0.81300
H740        H  0.73431488  0.15549693  0.09646087     0.33500
H741        H  0.73537223  0.18132753  0.10492186     0.38000
H742        H  0.62115270  0.11617344  0.05738311     0.33500
H743        H  0.62037313  0.09787424  0.08557167     0.30200
H744        H  0.65388763  0.07147871  0.14769882     0.33500
H745        H  0.65261134  0.08327232  0.11311481     0.30200
H746        H  0.61408583  0.13265174  0.21649443     0.38000
H747        H  0.61401400  0.14490381  0.18172696     0.33500
C748        C  0.69379279  0.15149958  0.43977973    -0.20200
C749        C  0.70326329  0.15921723  0.40883362     0.36000
C750        C  0.68884535  0.14697922  0.38190435    -0.26200
C751        C  0.66522051  0.12695403  0.38522772     0.02400
C752        C  0.65588556  0.11887519  0.41589113     0.27200
C753        C  0.67019871  0.13105896  0.44264565    -0.25300
N754        N  0.72738698  0.17936455  0.40444446    -0.82700
H755        H  0.69608893  0.15317617  0.35829840     0.13000
C756        C  0.64966099  0.11480672  0.35687806     0.02400
N757        N  0.63163428  0.09848808  0.41972730    -0.81300
H758        H  0.66247142  0.12461219  0.46595429     0.17900
C759        C  0.64196408  0.09076450  0.35019916    -0.26100
C760        C  0.62364536  0.07701798  0.32759384     0.35900
C761        C  0.61273160  0.08765578  0.31112267    -0.20200
C762        C  0.62178055  0.11231386  0.31646482    -0.25400
C763        C  0.63985349  0.12586416  0.33943767     0.27300
H764        H  0.64958770  0.08239063  0.36379245     0.13000
N765        N  0.61543824  0.05206628  0.32256810    -0.82700
H766        H  0.61379627  0.12080038  0.30398434     0.17900
N767        N  0.64741858  0.15045538  0.34625817    -0.81300
H768        H  0.62458769  0.04688390  0.33759473     0.33500
H769        H  0.62001006  0.05024485  0.29929407     0.38000
H770        H  0.63846459  0.15593873  0.33136002     0.33500
H771        H  0.64207781  0.15122163  0.36950465     0.30200
H772        H  0.62752014  0.09463614  0.44383172     0.33500
H773        H  0.61977854  0.10322309  0.41089226     0.30200
H774        H  0.72648392  0.19221752  0.39106911     0.38000
H775        H  0.73693104  0.17350699  0.39122772     0.33500
C776        C  0.48489758  0.12769718  0.05516331    -0.20200
C777        C  0.47184775  0.10234626  0.05789300     0.36000
C778        C  0.47879859  0.09184353  0.08089029    -0.26200
C779        C  0.49843213  0.10615039  0.10122785     0.02400
C780        C  0.51034063  0.13148687  0.10015187     0.27200
C781        C  0.50334779  0.14206839  0.07712981    -0.25300
N782        N  0.45219095  0.08737322  0.03640137    -0.82700
H783        H  0.46955897  0.07239088  0.08204874     0.13000
C784        C  0.50714382  0.09425622  0.12210371     0.02400
N785        N  0.52997707  0.14628347  0.12172109    -0.81300
H786        H  0.51338125  0.16149914  0.07495208     0.17900
C787        C  0.53054868  0.09886239  0.11766084    -0.26100
C788        C  0.53948590  0.08781748  0.13678158     0.35900
C789        C  0.52471757  0.07215352  0.16109438    -0.20200
C790        C  0.50103043  0.06695127  0.16474185    -0.25400
C791        C  0.49204561  0.07777353  0.14540815     0.27300
H792        H  0.54186231  0.11116278  0.09920228     0.13000
N793        N  0.56379593  0.09337862  0.13260034    -0.82700
H794        H  0.48968205  0.05478844  0.18330437     0.17900
N795        N  0.46785372  0.07249346  0.14973405    -0.81300
H796        H  0.57263081  0.10629159  0.11491957     0.33500
H797        H  0.56268863  0.07775676  0.12418601     0.38000
H798        H  0.45906410  0.05983886  0.16771463     0.33500
H799        H  0.46913659  0.08833588  0.15752148     0.30200
H800        H  0.53696503  0.16453618  0.11760863     0.33500
H801        H  0.52293123  0.14281647  0.14478037     0.30200
H802        H  0.43861095  0.09095525  0.04057236     0.38000
H803        H  0.44471301  0.06914082  0.04130338     0.33500
C804        C  0.48285659  0.12570747  0.44608992    -0.20200
C805        C  0.49932556  0.13884803  0.42146028     0.36000
C806        C  0.50296859  0.12635512  0.39698504    -0.26200
C807        C  0.49100746  0.10116838  0.39705711     0.02400
C808        C  0.47375260  0.08795306  0.42066744     0.27200
C809        C  0.46979539  0.10036160  0.44494414    -0.25300
N810        N  0.51344028  0.16475168  0.42237831    -0.82700
H811        H  0.51631719  0.13635779  0.37877525     0.13000
C812        C  0.49869920  0.08930650  0.37408062     0.02400
N813        N  0.46089220  0.06207251  0.42032605    -0.81300
H814        H  0.45708085  0.09022974  0.46372505     0.17900
C815        C  0.51089060  0.07855602  0.38542251    -0.26100
C816        C  0.52117879  0.06976822  0.36433783     0.35900
C817        C  0.51925017  0.07171352  0.33114882    -0.20200
C818        C  0.50635208  0.08189811  0.31995558    -0.25400
C819        C  0.49598205  0.09060054  0.34109835     0.27300
H820        H  0.51305629  0.07762816  0.41084890     0.13000
N821        N  0.53371688  0.05913273  0.37685976    -0.82700
H822        H  0.50442496  0.08322908  0.29458284     0.17900
N823        N  0.48289214  0.10096402  0.32930155    -0.81300
H824        H  0.52165186  0.04456531  0.39096098     0.33500
H825        H  0.54776908  0.07190288  0.39149816     0.38000
H826        H  0.48259609  0.10066189  0.30440447     0.33500
H827        H  0.46493760  0.09000417  0.33667429     0.30200
H828        H  0.44893631  0.05505463  0.43950374     0.33500
H829        H  0.45032197  0.05595969  0.39961592     0.30200
H830        H  0.52515433  0.17009914  0.44194450     0.38000
H831        H  0.52439842  0.17153084  0.40222620     0.33500
C832        C  0.31382922  0.87962088  0.00047947    -0.20200
C833        C  0.29665844  0.87586394  0.02400866     0.36000
C834        C  0.27349066  0.85465279  0.02298916    -0.26200
C835        C  0.27127637  0.84178320  0.50104812     0.02400
C836        C  0.28816883  0.84764525  0.47648830     0.27200
C837        C  0.31043400  0.86973573  0.47780115    -0.25300
N838        N  0.30251825  0.89377207  0.04834564    -0.82700
H839        H  0.26023426  0.85170821  0.04088447     0.13000
C840        C  0.24771293  0.81853029  0.50066437     0.02400
N841        N  0.28276014  0.83094963  0.45060587    -0.81300
H842        H  0.32349732  0.87399710  0.45906024     0.17900
C843        C  0.23095773  0.81374300  0.47646436    -0.26100
C844        C  0.20839008  0.79189504  0.47528790     0.35900
C845        C  0.19535951  0.77352417  0.99593770    -0.20200
C846        C  0.21179394  0.77684000  0.02011520    -0.25400
C847        C  0.23525154  0.79751009  0.02134432     0.27300
H848        H  0.23549116  0.82726484  0.45854578     0.13000
N849        N  0.19151259  0.78774892  0.45031084    -0.82700
H850        H  0.20652757  0.76300111  0.03777791     0.17900
N851        N  0.25202388  0.80030062  0.04571297    -0.81300
H852        H  0.19898373  0.80217901  0.43453723     0.33500
H853        H  0.17667434  0.78711411  0.46086511     0.38000
H854        H  0.24397893  0.78554788  0.06095955     0.33500
H855        H  0.26633121  0.80027116  0.03454305     0.30200
H856        H  0.29706563  0.83801842  0.43441879     0.33500
H857        H  0.28124409  0.81552160  0.46006323     0.30200
H858        H  0.30522588  0.90918550  0.03716442     0.38000
H859        H  0.28795553  0.88810961  0.06384800     0.33500
C860        C  0.47989589  0.99908713  0.17324258    -0.20200
C861        C  0.48396147  0.00180850  0.14002136     0.36000
C862        C  0.46437514  0.99307888  0.11889638    -0.26200
C863        C  0.44052487  0.98201319  0.12991156     0.02400
C864        C  0.43639421  0.98041203  0.16309221     0.27200
C865        C  0.45608009  0.98886815  0.18439231    -0.25300
N866        N  0.50796785  0.01340304  0.12739993    -0.82700
H867        H  0.46786002  0.99442374  0.09352717     0.13000
C868        C  0.42030044  0.97083876  0.10614406     0.02400
N869        N  0.41223190  0.97007534  0.17499916    -0.81300
H870        H  0.45270292  0.98699972  0.20977748     0.17900
C871        C  0.40216240  0.94629633  0.10850024    -0.26100
C872        C  0.38502911  0.93407395  0.08394697     0.35900
C873        C  0.38661554  0.94649176  0.05581198    -0.20200
C874        C  0.40385731  0.97138257  0.05437825    -0.25400
C875        C  0.42038692  0.98373716  0.07939882     0.27300
H876        H  0.40200319  0.93633230  0.12899690     0.13000
N877        N  0.36705651  0.90884045  0.08682549    -0.82700
H878        H  0.40481524  0.98117118  0.03323132     0.17900
N879        N  0.43766358  0.00923455  0.07744806    -0.81300
H880        H  0.36937374  0.90217569  0.10811772     0.33500
H881        H  0.35023108  0.90711948  0.08849256     0.38000
H882        H  0.43541019  0.01603694  0.05623811     0.33500
H883        H  0.43402029  0.01759779  0.09600321     0.30200
H884        H  0.41223383  0.97015031  0.19989651     0.33500
H885        H  0.40609873  0.98117275  0.16796379     0.30200
H886        H  0.50887358  0.00126323  0.11201315     0.38000
H887        H  0.51107224  0.02816620  0.11408823     0.33500
C888        C  0.38837093  0.94777543  0.44576562    -0.20200
C889        C  0.37724233  0.93948567  0.41549731     0.36000
C890        C  0.39152162  0.94642723  0.38793849    -0.26200
C891        C  0.41667572  0.96182099  0.38992212     0.02400
C892        C  0.42780262  0.97118702  0.41972359     0.27200
C893        C  0.41356908  0.96416390  0.44728136    -0.25300
N894        N  0.35150802  0.92406844  0.41246615    -0.82700
H895        H  0.38296428  0.93957257  0.36490607     0.13000
C896        C  0.43160948  0.96748053  0.36102538     0.02400
N897        N  0.45362007  0.98737124  0.42189092    -0.81300
H898        H  0.42244953  0.97093226  0.47013245     0.17900
C899        C  0.44366218  0.99096241  0.34937982    -0.26100
C900        C  0.46117616  0.99820158  0.32551906     0.35900
C901        C  0.46734513  0.98182430  0.31398111    -0.20200
C902        C  0.45383148  0.95775529  0.32380994    -0.25400
C903        C  0.43592270  0.95039540  0.34730732     0.27300
H904        H  0.43985558  0.00383714  0.35963655     0.13000
N905        N  0.47287699  0.02218005  0.31318442    -0.82700
H906        H  0.45819573  0.94503361  0.31455422     0.17900
N907        N  0.42278965  0.92594569  0.35821659    -0.81300
H908        H  0.46842983  0.02075826  0.28901863     0.33500
H909        H  0.46610624  0.03180197  0.32408889     0.38000
H910        H  0.42798022  0.91561800  0.34553266     0.33500
H911        H  0.42762732  0.92612840  0.38198370     0.30200
H912        H  0.45897144  0.99281351  0.44550164     0.33500
H913        H  0.46160024  0.97785151  0.41474022     0.30200
H914        H  0.34760760  0.90815305  0.40097006     0.38000
H915        H  0.34536391  0.93260969  0.39797135     0.33500
C916        C  0.54842614  0.83409588  0.00437530    -0.20200
C917        C  0.56123042  0.82874591  0.02636145     0.36000
C918        C  0.56148701  0.80751736  0.02225696    -0.26200
C919        C  0.56099486  0.80041522  0.49231979     0.02400
C920        C  0.55036287  0.80685631  0.46855751     0.27200
C921        C  0.55126194  0.82870188  0.47152083    -0.25300
N922        N  0.57434551  0.84507237  0.05229113    -0.82700
H923        H  0.57153084  0.80347725  0.03880580     0.13000
C924        C  0.55966866  0.77718552  0.49059605     0.02400
N925        N  0.53822838  0.79090558  0.44192785    -0.81300
H926        H  0.54288955  0.83352921  0.45333285     0.17900
C927        C  0.53432785  0.74938072  0.01224533    -0.26100
C928        C  0.53514425  0.72836985  0.01118061     0.35900
C929        C  0.55198473  0.72734482  0.99108243    -0.20200
C930        C  0.57628433  0.75299025  0.47539956    -0.25400
C931        C  0.57820359  0.77540665  0.47628831     0.27300
H932        H  0.52160198  0.75030024  0.02785265     0.13000
N933        N  0.51877460  0.70799693  0.03022597    -0.82700
H934        H  0.59057178  0.75153960  0.46467879     0.17900
N935        N  0.59906990  0.79644853  0.46337374    -0.81300
H936        H  0.50766454  0.71172388  0.04375463     0.33500
H937        H  0.50738984  0.69385026  0.01467790     0.38000
H938        H  0.61124417  0.79215603  0.45424243     0.33500
H939        H  0.59330408  0.80214596  0.44413271     0.30200
H940        H  0.53095052  0.79807170  0.42685467     0.33500
H941        H  0.55118458  0.78982215  0.42867601     0.30200
H942        H  0.58830457  0.86112694  0.04254188     0.38000
H943        H  0.58257576  0.83835600  0.06640213     0.33500
C944        C  0.54486979  0.89814429  0.06550252    -0.20200
C945        C  0.54650953  0.89051222  0.09637961     0.36000
C946        C  0.54534089  0.90283956  0.12349145    -0.26200
C947        C  0.54224901  0.92231372  0.12048889     0.02400
C948        C  0.53998861  0.92956796  0.09000224     0.27200
C949        C  0.54126490  0.91747287  0.06302881    -0.25300
N950        N  0.54991731  0.87077564  0.10031941    -0.82700
H951        H  0.54702066  0.89737206  0.14709976     0.13000
C952        C  0.54226541  0.93583495  0.14910075     0.02400
N953        N  0.53708746  0.94970171  0.08654041    -0.81300
H954        H  0.53962507  0.92349618  0.03981142     0.17900
C955        C  0.56410451  0.95619799  0.15934011    -0.26100
C956        C  0.56448035  0.97189599  0.18273453     0.35900
C957        C  0.54253694  0.96743519  0.19593032    -0.20200
C958        C  0.52087288  0.94592350  0.18733914    -0.25400
C959        C  0.52051545  0.93014581  0.16397728     0.27300
H960        H  0.58090030  0.96043475  0.14822324     0.13000
N961        N  0.58716933  0.99262491  0.19236052    -0.82700
H962        H  0.50392095  0.94198317  0.19757383     0.17900
N963        N  0.49810919  0.90868106  0.15478443    -0.81300
H964        H  0.59557260  0.00297557  0.17219705     0.33500
H965        H  0.59805834  0.98670005  0.20120587     0.38000
H966        H  0.48381129  0.90692457  0.16831885     0.33500
H967        H  0.49446254  0.91054573  0.13114404     0.30200
H968        H  0.53631063  0.95318354  0.06248189     0.33500
H969        H  0.52039769  0.94492401  0.09630803     0.30200
H970        H  0.53387806  0.85506442  0.09320407     0.38000
H971        H  0.55230992  0.86857972  0.12437176     0.33500
C972        C  0.54905923  0.98369588  0.33559576    -0.20200
C973        C  0.56142774  0.97298748  0.32357562     0.36000
C974        C  0.56543837  0.95832278  0.34368671    -0.26200
C975        C  0.55738318  0.95444215  0.37534973     0.02400
C976        C  0.54488879  0.96498494  0.38712190     0.27200
C977        C  0.54104632  0.97963393  0.36724379    -0.25300
N978        N  0.57032235  0.97748973  0.29146919    -0.82700
H979        H  0.57512378  0.95019979  0.33489666     0.13000
C980        C  0.56224255  0.93973511  0.39680483     0.02400
N981        N  0.53620347  0.96075840  0.41935641    -0.81300
H982        H  0.53143134  0.98773471  0.37642933     0.17900
C983        C  0.57986297  0.95152077  0.42063164    -0.26100
C984        C  0.58183402  0.93856369  0.44554616     0.35900
C985        C  0.56599452  0.91328866  0.44638565    -0.20200
C986        C  0.54942714  0.90132954  0.42139479    -0.25400
C987        C  0.54710079  0.91440808  0.39680943     0.27300
H988        H  0.59130896  0.97101164  0.42056859     0.13000
N989        N  0.59935601  0.95099823  0.47054804    -0.82700
H990        H  0.53717758  0.88195077  0.42224838     0.17900
N991        N  0.52870690  0.90224369  0.37275026    -0.81300
H992        H  0.60943344  0.96955728  0.46656589     0.33500
H993        H  0.61151192  0.94524071  0.46966650     0.38000
H994        H  0.51905764  0.88362056  0.37618009     0.33500
H995        H  0.51633051  0.90761248  0.37559493     0.30200
H996        H  0.52757668  0.97002098  0.42444770     0.33500
H997        H  0.52304840  0.94240879  0.42126658     0.30200
H998        H  0.58344213  0.99587314  0.28982171     0.38000
H999        H  0.57903666  0.96830591  0.28642508     0.33500
C1000       C  0.56235082  0.86673355  0.50026030     0.79900
N1001       N  0.55165087  0.86908120  0.97848445    -0.78400
C1002       C  0.55298131  0.89042909  0.97934315     0.82300
N1003       N  0.55092062  0.89932813  0.00758438    -0.78400
C1004       C  0.56101778  0.89640515  0.53106497     0.82400
N1005       N  0.56079018  0.87556702  0.52911426    -0.80100
C1006       C  0.34049783  0.90865533  0.50404720     0.79900
N1007       N  0.35182060  0.91909326  0.53212968    -0.78400
C1008       C  0.37433037  0.93937936  0.53232324     0.82300
N1009       N  0.38384532  0.94153546  0.99769251    -0.78400
C1010       C  0.37271337  0.92969013  0.97021957     0.82400
N1011       N  0.35007549  0.90978503  0.97163654    -0.80100
O1012       O  0.55013314  0.01650701  0.82992031    -0.80500
O1013       O  0.58931537  0.05824567  0.70898891    -0.80500
O1014       O  0.52596904  0.98128115  0.72501599    -0.80500
O1015       O  0.57932539  0.08182093  0.78147307    -0.80500
O1016       O  0.56323379  0.00868261  0.71437870    -0.80600
O1017       O  0.58312283  0.05069034  0.78902504    -0.80500
O1018       O  0.57997669  0.08547677  0.71724967    -0.80500
O1019       O  0.54379731  0.99460203  0.78653042    -0.80500
C1020       C  0.54855962  0.99825728  0.81683270     1.09200
C1021       C  0.59458916  0.07974279  0.70681471     1.09100
C1022       C  0.54614386  0.98686916  0.71329298     1.09200
C1023       C  0.59166855  0.07315130  0.79138843     1.09100
O1024       O  0.54504227  0.05367269  0.81692791    -0.80500
O1025       O  0.52143188  0.00764906  0.68668645    -0.80600
O1026       O  0.49595534  0.97337466  0.77487113    -0.80500
O1027       O  0.52765685  0.06070382  0.71600974    -0.80500
O1028       O  0.54813608  0.05568851  0.67869879    -0.80500
O1029       O  0.51022098  0.00866859  0.79915478    -0.80500
O1030       O  0.52585854  0.05841441  0.77903605    -0.80500
O1031       O  0.49974007  0.00472132  0.72874879    -0.80500
Co1032     Co  0.54772038  0.02916942  0.79110315     1.51500
Co1033     Co  0.55554389  0.03258090  0.70012840     1.51700
Co1034     Co  0.52221574  0.00189753  0.75706778     1.51600
Co1035     Co  0.55242569  0.06954521  0.74855386     1.51500
O1036       O  0.54670857  0.03621924  0.74528932    -1.42400
C1037       C  0.53077713  0.05999723  0.80809864     1.09100
C1038       C  0.50181162  0.00393682  0.69878669     1.09200
C1039       C  0.49341309  0.98620630  0.79529844     1.09200
C1040       C  0.53310437  0.06146041  0.68714606     1.09100
C1041       C  0.48618210  0.17190193  0.50223729     0.79900
N1042       N  0.48513433  0.16144973  0.53056380    -0.78400
C1043       C  0.48185052  0.13920201  0.53140219     0.82300
N1044       N  0.48013228  0.12757117  0.50378271    -0.78400
C1045       C  0.48177161  0.13821424  0.96993778     0.82400
N1046       N  0.48300711  0.15960251  0.97027417    -0.80100
C1047       C  0.73997340  0.19438590  0.99992294     0.79900
N1048       N  0.72888495  0.18437564  0.97144627    -0.78400
C1049       C  0.70638268  0.16398160  0.97051000     0.82300
N1050       N  0.69522505  0.15391790  0.99837860    -0.78400
C1051       C  0.70703846  0.16655644  0.52596958     0.82400
N1052       N  0.72926238  0.18720544  0.52535742    -0.80100
O1053       O  0.08072102  0.57407806  0.81618441    -0.80500
O1054       O  0.03242404  0.53971793  0.68906762    -0.80500
O1055       O  0.11229143  0.59675596  0.72548476    -0.80500
O1056       O  0.02463689  0.56009497  0.78919835    -0.80500
O1057       O  0.07702970  0.57642563  0.70067778    -0.80600
O1058       O  0.03330941  0.54311655  0.82703626    -0.80500
O1059       O  0.02536932  0.55915059  0.72513255    -0.80500
O1060       O  0.08082960  0.59269330  0.77247210    -0.80500
C1061       C  0.08299274  0.59250877  0.80247961     1.09200
C1062       C  0.02484620  0.55335166  0.69637351     1.09100
C1063       C  0.09906408  0.59473612  0.70215804     1.09200
C1064       C  0.02467559  0.55557931  0.81820018     1.09100
O1065       O  0.03550438  0.50392441  0.79876381    -0.80500
O1066       O  0.07059458  0.53517620  0.67718346    -0.80600
O1067       O  0.10900804  0.57170285  0.77840921    -0.80500
O1068       O  0.00667746  0.50721689  0.72681510    -0.80500
O1069       O  0.03927190  0.50545653  0.72238450    -0.80500
O1070       O  0.08477059  0.53428146  0.79081484    -0.80500
O1071       O  0.00486010  0.50853707  0.79109240    -0.80500
O1072       O  0.09507922  0.54918332  0.71927680    -0.80500
Co1073     Co  0.05852767  0.53873604  0.80534346     1.51500
Co1074     Co  0.05869932  0.54029041  0.71505453     1.51700
Co1075     Co  0.08562927  0.57053067  0.74619988     1.51600
Co1076     Co  0.01748742  0.53481155  0.75797676     1.51500
O1077       O  0.05248006  0.54464199  0.76017168    -1.42400
C1078       C  0.01327061  0.49626661  0.80174697     1.09100
C1079       C  0.09006919  0.54008238  0.69058478     1.09200
C1080       C  0.10582030  0.55284548  0.79114829     1.09200
C1081       C  0.01677045  0.49585779  0.71839210     1.09100
C1082       C  0.22034667  0.53092560  0.49071155     0.79900
N1083       N  0.21356511  0.53027837  0.96920981    -0.78400
C1084       C  0.19777545  0.53786009  0.96912144     0.82300
N1085       N  0.18945628  0.54069989  0.99725875    -0.78400
C1086       C  0.19223886  0.53710453  0.51756741     0.82400
N1087       N  0.20960271  0.53167632  0.51812826    -0.80100
C1088       C  0.90517663  0.35185506  0.50571547     0.79900
N1089       N  0.91376390  0.36157870  0.98368373    -0.78400
C1090       C  0.93546784  0.38292668  0.98404594     0.82300
N1091       N  0.94579669  0.39320571  0.01258378    -0.78400
C1092       C  0.93753212  0.38107151  0.53766243     0.82400
N1093       N  0.91558294  0.36030276  0.53481936    -0.80100
C1094       C  0.90091310  0.58764625  0.00753664     0.79900
N1095       N  0.91143513  0.58458725  0.53741719    -0.78400
C1096       C  0.93407240  0.58854003  0.53837614     0.82300
N1097       N  0.94506673  0.59308009  0.00731416    -0.78400
C1098       C  0.93276682  0.58849653  0.97966868     0.82400
N1099       N  0.91059597  0.58561331  0.97979485    -0.80100
C1100       C  0.17950847  0.75020947  0.49807358     0.79900
N1101       N  0.15947541  0.74110976  0.96705177    -0.78400
C1102       C  0.13788235  0.71973018  0.96634617     0.82300
N1103       N  0.13932379  0.70510836  0.49526534    -0.78400
C1104       C  0.15258250  0.71290260  0.52240418     0.82400
N1105       N  0.17259419  0.73554615  0.52385341    -0.80100
O1106       O  0.53912385  0.50199275  0.67940777    -0.80500
O1107       O  0.51648261  0.52509640  0.80904988    -0.80500
O1108       O  0.55076832  0.48106080  0.76850542    -0.80500
O1109       O  0.48802339  0.50207515  0.70854091    -0.80500
O1110       O  0.52932678  0.49323271  0.79400386    -0.80600
O1111       O  0.51413604  0.52336455  0.67115891    -0.80500
O1112       O  0.49037596  0.50268070  0.77292446    -0.80500
O1113       O  0.52072992  0.47964166  0.72141257    -0.80500
C1114       C  0.52485446  0.48139153  0.69169330     1.09200
C1115       C  0.49490190  0.50939150  0.80154979     1.09100
C1116       C  0.53638687  0.47821303  0.79078747     1.09200
C1117       C  0.49275165  0.50734509  0.67954127     1.09100
O1118       O  0.55247486  0.56755750  0.70005638    -0.80500
O1119       O  0.56196410  0.53646521  0.82114667    -0.80600
O1120       O  0.57202541  0.51116384  0.71791915    -0.80500
O1121       O  0.51938484  0.55601262  0.77214948    -0.80500
O1122       O  0.55671183  0.56435424  0.77790693    -0.80500
O1123       O  0.57972640  0.54685923  0.70688226    -0.80500
O1124       O  0.51407907  0.55403309  0.70804398    -0.80500
O1125       O  0.57652237  0.52927451  0.77787879    -0.80500
Co1126     Co  0.54635552  0.53497283  0.69234133     1.51500
Co1127     Co  0.54438553  0.52985797  0.78278051     1.51700
Co1128     Co  0.54624158  0.50452666  0.74962908     1.51600
Co1129     Co  0.50434687  0.52799863  0.74054183     1.51500
O1130       O  0.53393802  0.52566028  0.73734088    -1.42400
C1131       C  0.53468685  0.57017929  0.69751124     1.09100
C1132       C  0.57926709  0.53667504  0.80727812     1.09200
C1133       C  0.58621259  0.53185182  0.70648033     1.09200
C1134       C  0.54135290  0.57048558  0.78097150     1.09100
C1135       C  0.48981358  0.32778019  0.50169840     0.79900
N1136       N  0.48453918  0.33489250  0.52948385    -0.78400
C1137       C  0.48376886  0.35520059  0.53058887     0.82300
N1138       N  0.48817923  0.36814088  0.50364297    -0.78400
C1139       C  0.49398291  0.36212539  0.97189628     0.82400
N1140       N  0.49324422  0.34097004  0.97137787    -0.80100
C1141       C  0.34566771  0.48546970  0.49028671     0.79900
N1142       N  0.35300112  0.48135386  0.51852486    -0.78400
C1143       C  0.36880369  0.47387253  0.51887039     0.82300
N1144       N  0.37788538  0.47152965  0.49108598    -0.78400
C1145       C  0.36807141  0.46519228  0.96679420     0.82400
N1146       N  0.34974923  0.46933999  0.96685730    -0.80100
C1147       C  0.73507978  0.56106075  0.50449150     0.79900
N1148       N  0.72368268  0.55973820  0.53230474    -0.78400
C1149       C  0.70115425  0.55610466  0.53220353     0.82300
N1150       N  0.69022638  0.55392428  0.50381748    -0.78400
C1151       C  0.69967608  0.55939724  0.97217582     0.82400
N1152       N  0.72236992  0.56332658  0.97153320    -0.80100
C1153       C  0.55563277  0.70963133  0.48897436     0.79900
N1154       N  0.55253106  0.69784536  0.51675033    -0.78400
C1155       C  0.55207332  0.67688784  0.51689683     0.82300
N1156       N  0.55442519  0.66772259  0.48897189    -0.78400
C1157       C  0.56019812  0.67802630  0.96266076     0.82400
N1158       N  0.55820047  0.69768534  0.96293579    -0.80100
C1159       C  0.47484710  0.50009597  0.82484765    -0.20200
C1160       C  0.47893145  0.50626209  0.85753550     0.36000
C1161       C  0.45919434  0.49773055  0.87819462    -0.26200
C1162       C  0.43537496  0.48344318  0.86681358     0.02400
C1163       C  0.43110148  0.47727775  0.83430125     0.27200
C1164       C  0.45085381  0.48553655  0.81366716    -0.25300
N1165       N  0.50298213  0.52132277  0.86990660    -0.82700
H1166       H  0.46245994  0.50259339  0.90324902     0.13000
C1167       C  0.41517093  0.47541045  0.88938706     0.02400
N1168       N  0.40673318  0.46274938  0.82242239    -0.81300
H1169       H  0.44739161  0.48079604  0.78861616     0.17900
C1170       C  0.40039707  0.48489989  0.88737481    -0.26100
C1171       C  0.38339375  0.48037055  0.91118992     0.35900
C1172       C  0.38095803  0.46586989  0.93730154    -0.20200
C1173       C  0.39453041  0.45489924  0.93773527    -0.25400
C1174       C  0.41170404  0.45964941  0.91416642     0.27300
H1175       H  0.40297060  0.49690602  0.86812144     0.13000
N1176       N  0.36983673  0.49175155  0.90966640    -0.82700
H1177       H  0.39256435  0.44343933  0.95740536     0.17900
N1178       N  0.42625086  0.44922423  0.91581659    -0.81300
H1179       H  0.38205089  0.51039070  0.90898009     0.33500
H1180       H  0.35996573  0.48638784  0.88836651     0.38000
H1181       H  0.42167320  0.43824208  0.93576645     0.33500
H1182       H  0.42210367  0.43801168  0.89583238     0.30200
H1183       H  0.40667509  0.46001904  0.79783761     0.33500
H1184       H  0.39884691  0.44579507  0.83284499     0.30200
H1185       H  0.50556771  0.51184760  0.88765930     0.38000
H1186       H  0.50438667  0.53654681  0.88043888     0.33500
C1187       C  0.37891335  0.47131107  0.54884491    -0.20200
C1188       C  0.38554297  0.45407108  0.55120249     0.36000
C1189       C  0.40131626  0.45638238  0.57561821    -0.26200
C1190       C  0.41042434  0.47553219  0.59748020     0.02400
C1191       C  0.40201331  0.49134871  0.59702087     0.27200
C1192       C  0.38608991  0.48896500  0.57275218    -0.25300
N1193       N  0.37715149  0.43502440  0.52785022    -0.82700
H1194       H  0.40773716  0.44418577  0.57640995     0.13000
C1195       C  0.43149891  0.48127709  0.61726897     0.02400
N1196       N  0.41094894  0.51066122  0.62003743    -0.81300
H1197       H  0.38093662  0.50212540  0.57101840     0.17900
C1198       C  0.45433114  0.49992842  0.60742771    -0.26100
C1199       C  0.47484212  0.50776015  0.62641093     0.35900
C1200       C  0.47253942  0.49680207  0.65610278    -0.20200
C1201       C  0.44971456  0.47706231  0.66497947    -0.25400
C1202       C  0.42912568  0.46919561  0.64577395     0.27300
H1203       H  0.45612935  0.50892882  0.58514785     0.13000
N1204       N  0.49772440  0.52744849  0.61583599    -0.82700
H1205       H  0.44774715  0.46825442  0.68745348     0.17900
N1206       N  0.40583247  0.44940775  0.65532934    -0.81300
H1207       H  0.50162178  0.52261488  0.59389025     0.33500
H1208       H  0.49613498  0.54230865  0.61230208     0.38000
H1209       H  0.40720747  0.44238499  0.67688314     0.33500
H1210       H  0.39473462  0.45616852  0.65953515     0.30200
H1211       H  0.40333801  0.52098205  0.61613338     0.33500
H1212       H  0.40508540  0.50291547  0.64245400     0.30200
H1213       H  0.35833573  0.42415687  0.52982331     0.38000
H1214       H  0.38390714  0.42408127  0.53277248     0.33500
C1215       C  0.54815543  0.59292452  0.79929594    -0.20200
C1216       C  0.53090340  0.59892511  0.80717638     0.36000
C1217       C  0.53642883  0.61680036  0.83028429    -0.26200
C1218       C  0.55909104  0.62939972  0.84548742     0.02400
C1219       C  0.57717626  0.62513828  0.83547278     0.27200
C1220       C  0.57149713  0.60689668  0.81270592    -0.25300
N1221       N  0.50736508  0.58636136  0.79275824    -0.82700
H1222       H  0.52237024  0.61989497  0.83756725     0.13000
C1223       C  0.56248033  0.64465400  0.87415091     0.02400
N1224       N  0.60104465  0.63890954  0.84913015    -0.81300
H1225       H  0.58514623  0.60295029  0.80647872     0.17900
C1226       C  0.57033289  0.64005522  0.90272655    -0.26100
C1227       C  0.57093044  0.65161598  0.93132787     0.35900
C1228       C  0.56286757  0.66781535  0.93202917    -0.20200
C1229       C  0.55609355  0.67331280  0.90309607    -0.25400
C1230       C  0.55597610  0.66204913  0.87419797     0.27300
H1231       H  0.57535780  0.62675353  0.90316378     0.13000
N1232       N  0.57976675  0.64672229  0.95958278    -0.82700
H1233       H  0.55022784  0.68595889  0.90306398     0.17900
N1234       N  0.54899451  0.66797973  0.84498372    -0.81300
H1235       H  0.56914189  0.62821428  0.96380616     0.33500
H1236       H  0.59748713  0.65124672  0.95537038     0.38000
H1237       H  0.54465388  0.68100144  0.84905051     0.33500
H1238       H  0.56403014  0.67576439  0.82997571     0.30200
H1239       H  0.61218759  0.63349661  0.83940764     0.33500
H1240       H  0.60851996  0.65687398  0.84270759     0.30200
H1241       H  0.49449519  0.57829084  0.81079979     0.38000
H1242       H  0.50480917  0.59901032  0.78157001     0.33500
C1243       C  0.54923133  0.66393542  0.54699077    -0.20200
C1244       C  0.56021282  0.67621821  0.57588863     0.36000
C1245       C  0.55753696  0.66287584  0.60341106    -0.26200
C1246       C  0.54448225  0.63758461  0.60245617     0.02400
C1247       C  0.53382861  0.62538067  0.57349568     0.27200
C1248       C  0.53619234  0.63864682  0.54621781    -0.25300
N1249       N  0.57464570  0.70210521  0.57698229    -0.82700
H1250       H  0.56592711  0.67219422  0.62559294     0.13000
C1251       C  0.54264297  0.62372391  0.63131869     0.02400
N1252       N  0.52098917  0.59950549  0.57180020    -0.81300
H1253       H  0.52792461  0.62914770  0.52408213     0.17900
C1254       C  0.51969243  0.60666225  0.64304371    -0.26100
C1255       C  0.51670961  0.58996564  0.66609506     0.35900
C1256       C  0.53717087  0.59039939  0.67825163    -0.20200
C1257       C  0.56030634  0.60886157  0.66833795    -0.25400
C1258       C  0.56324526  0.62538535  0.64484342     0.27300
H1259       H  0.50381366  0.60548662  0.63299485     0.13000
N1260       N  0.49271735  0.57189699  0.67570962    -0.82700
H1261       H  0.57616629  0.60965460  0.67768453     0.17900
N1262       N  0.58699045  0.64307213  0.63360503    -0.81300
H1263       H  0.48443898  0.58057194  0.68509543     0.33500
H1264       H  0.48296934  0.56212508  0.65546945     0.38000
H1265       H  0.60021799  0.64198560  0.64606287     0.33500
H1266       H  0.58810827  0.63889302  0.60981826     0.30200
H1267       H  0.51415709  0.59328671  0.54885230     0.33500
H1268       H  0.53344283  0.59446185  0.57619279     0.30200
H1269       H  0.58964083  0.70763567  0.56233240     0.38000
H1270       H  0.58141510  0.70827436  0.59996800     0.33500
C1271       C  0.68633393  0.55717740  0.94253593    -0.20200
C1272       C  0.66429888  0.53558611  0.93529437     0.36000
C1273       C  0.65026706  0.53471567  0.90932298    -0.26200
C1274       C  0.65753408  0.55512312  0.89077090     0.02400
C1275       C  0.67969413  0.57669376  0.89777860     0.27200
C1276       C  0.69404304  0.57743601  0.92344137    -0.25300
N1277       N  0.65603588  0.51476669  0.95482870    -0.82700
H1278       H  0.63314488  0.51823766  0.90410204     0.13000
C1279       C  0.64069299  0.55371863  0.86568842     0.02400
N1280       N  0.68724069  0.59781874  0.87923386    -0.81300
H1281       H  0.71078308  0.59410431  0.92937287     0.17900
C1282       C  0.62877044  0.56605396  0.87039189    -0.26100
C1283       C  0.60963285  0.56181950  0.85035691     0.35900
C1284       C  0.60217704  0.54497893  0.82498205    -0.20200
C1285       C  0.61534640  0.53401685  0.81883098    -0.25400
C1286       C  0.63448632  0.53817022  0.83903557     0.27300
H1287       H  0.63360234  0.57822238  0.89060666     0.13000
N1288       N  0.59758534  0.57444744  0.85613500    -0.82700
H1289       H  0.60988601  0.52121453  0.79925964     0.17900
N1290       N  0.64720714  0.52614099  0.83323512    -0.81300
H1291       H  0.59068226  0.57064369  0.87926504     0.33500
H1292       H  0.61043353  0.59292427  0.85494938     0.38000
H1293       H  0.64042219  0.51522230  0.81282798     0.33500
H1294       H  0.66522800  0.53937459  0.82847605     0.30200
H1295       H  0.70381019  0.61224797  0.88760544     0.33500
H1296       H  0.69015258  0.59411153  0.85596986     0.30200
H1297       H  0.66005983  0.50622184  0.46480195     0.38000
H1298       H  0.63936836  0.50041264  0.94658916     0.33500
C1299       C  0.60834151  0.53719772  0.68900622    -0.20200
C1300       C  0.62623244  0.56091300  0.67999634     0.36000
C1301       C  0.64395213  0.56447228  0.65776533    -0.26200
C1302       C  0.64435191  0.54492328  0.64470564     0.02400
C1303       C  0.62776484  0.52147509  0.65549297     0.27200
C1304       C  0.61004350  0.51785902  0.67774335    -0.25300
N1305       N  0.62594103  0.58121736  0.69265198    -0.82700
H1306       H  0.65692783  0.58248097  0.64952891     0.13000
C1307       C  0.65983603  0.54886048  0.61668344     0.02400
N1308       N  0.62825370  0.50132500  0.64263830    -0.81300
H1309       H  0.59656037  0.49964035  0.68467154     0.17900
C1310       C  0.67978836  0.54635894  0.61913252    -0.26100
C1311       C  0.69417708  0.54929282  0.59235237     0.35900
C1312       C  0.68809435  0.55443102  0.56231251    -0.20200
C1313       C  0.66808223  0.55705814  0.56037085    -0.25400
C1314       C  0.65392311  0.55424612  0.58706844     0.27300
H1315       H  0.68411162  0.54210290  0.64204056     0.13000
N1316       N  0.71441701  0.54644204  0.59561565    -0.82700
H1317       H  0.66318817  0.56112306  0.53775514     0.17900
N1318       N  0.63324629  0.55646787  0.58417622    -0.81300
H1319       H  0.71516475  0.54092975  0.61862174     0.33500
H1320       H  0.73013245  0.56345854  0.59302537     0.38000
H1321       H  0.63140202  0.56063347  0.56081535     0.33500
H1322       H  0.61781791  0.53962847  0.58892650     0.30200
H1323       H  0.61489493  0.48529424  0.65315031     0.33500
H1324       H  0.62389082  0.49979505  0.61842854     0.30200
H1325       H  0.62906209  0.58198410  0.71717449     0.38000
H1326       H  0.64014820  0.59730351  0.68329944     0.33500
C1327       C  0.49799567  0.37644142  0.94236263    -0.20200
C1328       C  0.50481352  0.37121712  0.91281912     0.36000
C1329       C  0.50978215  0.38639255  0.88663930    -0.25300
C1330       C  0.50820032  0.40688126  0.88912075     0.02400
C1331       C  0.50099334  0.41196320  0.91829157     0.27200
C1332       C  0.49582486  0.39668971  0.94432539    -0.25300
N1333       N  0.50711622  0.35080852  0.90917164    -0.82700
H1334       H  0.51510551  0.38222773  0.86423986     0.13000
C1335       C  0.51476351  0.42335210  0.86151035     0.02400
N1336       N  0.49945611  0.43296516  0.92160894    -0.81300
H1337       H  0.49045068  0.40102331  0.96652654     0.17900
C1338       C  0.49815044  0.42905672  0.85034820    -0.26100
C1339       C  0.50461432  0.44647522  0.82678123     0.35900
C1340       C  0.52789432  0.45802139  0.81327981    -0.20200
C1341       C  0.54409449  0.45143323  0.82320257    -0.25400
C1342       C  0.53796233  0.43457558  0.84758785     0.27300
H1343       H  0.48021054  0.42035164  0.86058073     0.13000
N1344       N  0.48745727  0.45235592  0.81663025    -0.82700
H1345       H  0.56208731  0.46042990  0.81309119     0.17900
N1346       N  0.55552558  0.42954997  0.85911749    -0.81300
H1347       H  0.47209506  0.43660044  0.80804254     0.33500
H1348       H  0.48238091  0.45833842  0.83654480     0.38000
H1349       H  0.57167351  0.43929301  0.84640366     0.33500
H1350       H  0.55958631  0.43570748  0.88271509     0.30200
H1351       H  0.49371762  0.43406305  0.94446827     0.33500
H1352       H  0.51690278  0.44811687  0.91904174     0.30200
H1353       H  0.52483394  0.35696388  0.90212572     0.38000
H1354       H  0.49543715  0.33983517  0.89090683     0.33500
C1355       C  0.51445863  0.45927782  0.67130150    -0.20200
C1356       C  0.52393868  0.45990984  0.64073630     0.36000
C1357       C  0.51401591  0.43884259  0.62226457    -0.26200
C1358       C  0.49486875  0.41686708  0.63345720     0.02400
C1359       C  0.48533123  0.41580109  0.66391084     0.27200
C1360       C  0.49524915  0.43704898  0.68262889    -0.25300
N1361       N  0.54401237  0.48176259  0.62840406    -0.82700
H1362       H  0.52145554  0.43961987  0.59887948     0.13000
C1363       C  0.48532653  0.39561994  0.61199328     0.02400
N1364       N  0.46573200  0.39325810  0.67561745    -0.81300
H1365       H  0.48786041  0.43624969  0.70602465     0.17900
C1366       C  0.49383733  0.38010629  0.61505328    -0.26100
C1367       C  0.49133157  0.36453326  0.58983644     0.35900
C1368       C  0.48045063  0.36498058  0.56093757    -0.20200
C1369       C  0.46973593  0.37871156  0.55947235    -0.25400
C1370       C  0.47203928  0.39399138  0.58473720     0.27300
H1371       H  0.50397352  0.38142865  0.63620723     0.13000
N1372       N  0.50155937  0.34990585  0.59261312    -0.82700
H1373       H  0.46084977  0.37868902  0.53769112     0.17900
N1374       N  0.46246331  0.40920280  0.58201487    -0.81300
H1375       H  0.51007521  0.35277245  0.61472154     0.33500
H1376       H  0.48722337  0.33190269  0.59219850     0.38000
H1377       H  0.45349353  0.40616749  0.56023381     0.33500
H1378       H  0.44944512  0.40419247  0.59978272     0.30200
H1379       H  0.46087457  0.39551564  0.69851910     0.33500
H1380       H  0.45072458  0.38786042  0.66095112     0.30200
H1381       H  0.53867551  0.48544857  0.60687257     0.38000
H1382       H  0.55806172  0.47895242  0.62368981     0.33500
C1383       C  0.87657464  0.58452065  0.00691498    -0.20200
C1384       C  0.87070598  0.59824568  0.02670929     0.36000
C1385       C  0.84750487  0.59480471  0.02458373    -0.26200
C1386       C  0.83027116  0.57433205  0.50943459     0.02400
C1387       C  0.83566969  0.56085464  0.52979878     0.27200
C1388       C  0.85895021  0.56444864  0.52921385    -0.25300
N1389       N  0.88842574  0.61598097  0.04837516    -0.82700
H1390       H  0.84310864  0.60550774  0.03954437     0.13000
C1391       C  0.80584423  0.57085427  0.50888379     0.02400
N1392       N  0.81734548  0.54323358  0.55047412    -0.81300
H1393       H  0.86306992  0.55406769  0.54487427     0.17900
C1394       C  0.79632924  0.57747033  0.97338717    -0.26100
C1395       C  0.77328669  0.57439579  0.97167676     0.35900
C1396       C  0.75940049  0.56431378  0.50539114    -0.20200
C1397       C  0.77690530  0.58109424  0.52692153    -0.25400
C1398       C  0.80014709  0.58465082  0.52867925     0.27300
H1399       H  0.80731250  0.58241386  0.95211061     0.13000
N1400       N  0.76500559  0.57780880  0.94184135    -0.82700
H1401       H  0.77252252  0.59171258  0.54209241     0.17900
N1402       N  0.81813488  0.60254343  0.54995056    -0.81300
H1403       H  0.77744956  0.59529904  0.93420810     0.33500
H1404       H  0.76485995  0.56573431  0.92523116     0.38000
H1405       H  0.81121689  0.61146696  0.56238836     0.33500
H1406       H  0.82214327  0.59364387  0.56695205     0.30200
H1407       H  0.82406782  0.53449649  0.56343832     0.33500
H1408       H  0.81303493  0.55234324  0.56708260     0.30200
H1409       H  0.88118453  0.62439245  0.06131191     0.38000
H1410       H  0.90252668  0.62936603  0.03476863     0.33500
C1411       C  0.23957582  0.52522356  0.49135628    -0.20200
C1412       C  0.24175817  0.51242478  0.51667101     0.36000
C1413       C  0.26018050  0.50747784  0.51617226    -0.26200
C1414       C  0.27643329  0.51482000  0.49075692     0.02400
C1415       C  0.26783961  0.51197543  0.96836516     0.27200
C1416       C  0.25120510  0.51943993  0.96945109    -0.25300
N1417       N  0.22494692  0.50375307  0.54252277    -0.82700
H1418       H  0.26150780  0.49739421  0.53547257     0.13000
C1419       C  0.29479494  0.50810621  0.49036759     0.02400
N1420       N  0.28159373  0.51533176  0.93998369    -0.81300
H1421       H  0.24885509  0.52749987  0.94852120     0.17900
C1422       C  0.28738762  0.47745579  0.97211297    -0.26100
C1423       C  0.30388947  0.46988181  0.97154247     0.35900
C1424       C  0.32812620  0.49318667  0.48987652    -0.20200
C1425       C  0.33004354  0.50990570  0.51278044    -0.25400
C1426       C  0.31365699  0.51763533  0.51306312     0.27300
H1427       H  0.27330272  0.47060744  0.95411315     0.13000
N1428       N  0.30176838  0.45328193  0.94735254    -0.82700
H1429       H  0.34455998  0.51719280  0.53019765     0.17900
N1430       N  0.31611291  0.53518128  0.53611809    -0.81300
H1431       H  0.28448931  0.43771811  0.94881681     0.33500
H1432       H  0.30327209  0.46106815  0.92519405     0.38000
H1433       H  0.33091224  0.54039041  0.55111491     0.33500
H1434       H  0.31993211  0.55056055  0.52372874     0.30200
H1435       H  0.27695027  0.52317904  0.92215434     0.33500
H1436       H  0.29981634  0.52757431  0.94547163     0.30200
H1437       H  0.21652851  0.48502608  0.54333949     0.38000
H1438       H  0.23468441  0.51104020  0.56370776     0.33500
C1439       C  0.94540608  0.58755465  0.56813087    -0.20200
C1440       C  0.97004862  0.60471193  0.57393591     0.36000
C1441       C  0.98290375  0.59988541  0.59605702    -0.26200
C1442       C  0.97146427  0.57815659  0.61274631     0.02400
C1443       C  0.94615297  0.56216702  0.60959148     0.27200
C1444       C  0.93335368  0.56691911  0.58697596    -0.25300
N1445       N  0.98220857  0.62676989  0.55656777    -0.82700
H1446       H  0.00214609  0.61267989  0.59910227     0.13000
C1447       C  0.98639615  0.57228036  0.63269135     0.02400
N1448       N  0.93373212  0.54094054  0.62878391    -0.81300
H1449       H  0.91433865  0.55380271  0.58267104     0.17900
C1450       C  0.00156036  0.58869379  0.65630179    -0.26100
C1451       C  0.01548484  0.58350689  0.67613528     0.35900
C1452       C  0.01400892  0.56129869  0.67246913    -0.20200
C1453       C  0.00004649  0.54557924  0.64755486    -0.25400
C1454       C  0.98633774  0.55093764  0.62760168     0.27300
H1455       H  0.00220197  0.60543609  0.65961937     0.13000
N1456       N  0.03097803  0.60061139  0.70015091    -0.82700
H1457       H  0.99904476  0.52865045  0.64425824     0.17900
N1458       N  0.97248253  0.53473122  0.60206646    -0.81300
H1459       H  0.02994284  0.61597751  0.69975355     0.33500
H1460       H  0.04880454  0.60623899  0.69440620     0.38000
H1461       H  0.98432205  0.53295231  0.58721798     0.33500
H1462       H  0.96037194  0.51785399  0.61178185     0.30200
H1463       H  0.93541999  0.54658432  0.65253902     0.33500
H1464       H  0.91523349  0.53105792  0.62346975     0.30200
H1465       H  0.99664570  0.62772997  0.54432226     0.38000
H1466       H  0.98932359  0.64106106  0.57299978     0.33500
C1467       C  0.94361632  0.58566086  0.95048638    -0.20200
C1468       C  0.93131395  0.56461331  0.93137319     0.36000
C1469       C  0.94430510  0.56041324  0.90821807    -0.26200
C1470       C  0.96911549  0.57699496  0.90376649     0.02400
C1471       C  0.98104997  0.59858709  0.92168277     0.27200
C1472       C  0.96818078  0.60264702  0.94496390    -0.25300
N1473       N  0.90621529  0.54693136  0.93692457    -0.82700
H1474       H  0.93527992  0.54390666  0.89417330     0.13000
C1475       C  0.98294181  0.57108826  0.88174519     0.02400
N1476       N  0.00638685  0.61587914  0.91689745    -0.81300
H1477       H  0.97758722  0.61873306  0.95980949     0.17900
C1478       C  0.99330311  0.58509414  0.85463730    -0.26100
C1479       C  0.00769962  0.58092983  0.83420982     0.35900
C1480       C  0.01197837  0.56243474  0.84101023    -0.20200
C1481       C  0.00185410  0.54867876  0.86854227    -0.25400
C1482       C  0.98723893  0.55272724  0.88889149     0.27300
H1483       H  0.99025199  0.59941909  0.84937989     0.13000
N1484       N  0.01808478  0.59571896  0.80676781    -0.82700
H1485       H  0.00485976  0.53434283  0.87384615     0.17900
N1486       N  0.97675305  0.53831801  0.91678712    -0.81300
H1487       H  0.00401664  0.59392823  0.79268553     0.33500
H1488       H  0.02864622  0.61366509  0.81449090     0.38000
H1489       H  0.98141564  0.52538321  0.91840940     0.33500
H1490       H  0.98434953  0.54968303  0.93667834     0.30200
H1491       H  0.01240834  0.63085739  0.93192411     0.33500
H1492       H  0.01588735  0.60782835  0.92349295     0.30200
H1493       H  0.89630354  0.55459759  0.93060608     0.38000
H1494       H  0.90027484  0.53198371  0.92186430     0.33500
C1495       C  0.00295380  0.47373461  0.69850541    -0.20200
C1496       C  0.01009950  0.45693568  0.69393988     0.36000
C1497       C  0.99822127  0.43852469  0.67106202    -0.26200
C1498       C  0.97973953  0.43678727  0.65198549     0.02400
C1499       C  0.97212768  0.45305100  0.65695897     0.27200
C1500       C  0.98346462  0.47098532  0.68053848    -0.25300
N1501       N  0.02924911  0.45801579  0.71199340    -0.82700
H1502       H  0.00397536  0.42592849  0.66741173     0.13000
C1503       C  0.96955652  0.41914478  0.62528379     0.02400
N1504       N  0.95362701  0.45195371  0.63709126    -0.81300
H1505       H  0.97795236  0.48382805  0.68343321     0.17900
C1506       C  0.94454031  0.40255006  0.62364204    -0.26100
C1507       C  0.93374140  0.38886640  0.59590216     0.35900
C1508       C  0.94822989  0.39158913  0.56929982    -0.20200
C1509       C  0.97348686  0.40695424  0.57195480    -0.25400
C1510       C  0.98421333  0.42077950  0.59960926     0.27300
H1511       H  0.93318386  0.40113744  0.64342293     0.13000
N1512       N  0.90796674  0.37343644  0.59433027    -0.82700
H1513       H  0.98493781  0.40906897  0.55194228     0.17900
N1514       N  0.00985797  0.43746965  0.60084548    -0.81300
H1515       H  0.90050425  0.38391205  0.59847736     0.33500
H1516       H  0.90239473  0.36089670  0.61262062     0.38000
H1517       H  0.01825421  0.42778790  0.59742115     0.33500
H1518       H  0.01468194  0.44942142  0.58195079     0.30200
H1519       H  0.95010807  0.46518053  0.64389997     0.33500
H1520       H  0.96032154  0.45598306  0.61386547     0.30200
H1521       H  0.02569745  0.45833386  0.73622172     0.38000
H1522       H  0.04557905  0.47373423  0.70633522     0.33500
C1523       C  0.99807189  0.47487788  0.82204437    -0.20200
C1524       C  0.97991925  0.47360528  0.84201393     0.36000
C1525       C  0.96975911  0.45615376  0.86593650    -0.26200
C1526       C  0.97689678  0.43965931  0.87014687     0.02400
C1527       C  0.99375383  0.43976329  0.84907226     0.27200
C1528       C  0.00423724  0.45742614  0.82525222    -0.25300
N1529       N  0.97291581  0.49092358  0.83942360    -0.82700
H1530       H  0.95670375  0.45587516  0.88219471     0.13000
C1531       C  0.96817663  0.42422320  0.89877036     0.02400
N1532       N  0.00075359  0.42251744  0.85264932    -0.81300
H1533       H  0.01800058  0.45818573  0.80995040     0.17900
C1534       C  0.95028753  0.39965667  0.89604727    -0.26100
C1535       C  0.93974898  0.38554318  0.92334616     0.35900
C1536       C  0.94723062  0.39616260  0.95405570    -0.20200
C1537       C  0.96603352  0.42059947  0.95637800    -0.25400
C1538       C  0.97650694  0.43464844  0.92918314     0.27300
H1539       H  0.94398396  0.39156050  0.87264494     0.13000
N1540       N  0.92141783  0.36054411  0.91960434    -0.82700
H1541       H  0.97227759  0.42913143  0.97954823     0.17900
N1542       N  0.99524765  0.45970949  0.93226219    -0.81300
H1543       H  0.92874206  0.35224687  0.90659216     0.33500
H1544       H  0.90724142  0.35920672  0.90626294     0.38000
H1545       H  0.99916331  0.46477028  0.95624751     0.33500
H1546       H  0.01096860  0.46192208  0.92224586     0.30200
H1547       H  0.01322960  0.42493180  0.83512901     0.33500
H1548       H  0.00966216  0.42595291  0.87455278     0.30200
H1549       H  0.96347835  0.48743554  0.81795200     0.38000
H1550       H  0.96079202  0.48856649  0.85744226     0.33500
C1551       C  0.10713277  0.53605611  0.67273094    -0.20200
C1552       C  0.09865388  0.51710796  0.65018679     0.36000
C1553       C  0.11484897  0.51667979  0.62867760    -0.26200
C1554       C  0.13937580  0.53503894  0.62903716     0.02400
C1555       C  0.14823887  0.55320650  0.65276011     0.27200
C1556       C  0.13201500  0.55342147  0.67467366    -0.25300
N1557       N  0.07348650  0.49858671  0.64857528    -0.82700
H1558       H  0.10802640  0.50262844  0.61055544     0.13000
C1559       C  0.15480463  0.53645778  0.60223065     0.02400
N1560       N  0.17348233  0.57182348  0.65361235    -0.81300
H1561       H  0.13856780  0.56804341  0.69190504     0.17900
C1562       C  0.16156691  0.55442182  0.57951795    -0.26100
C1563       C  0.17427393  0.55529073  0.55204874     0.35900
C1564       C  0.18042622  0.53782787  0.54730727    -0.20200
C1565       C  0.17430521  0.52028605  0.57061734    -0.25400
C1566       C  0.16131237  0.51930378  0.59795832     0.27300
H1567       H  0.15640468  0.56749923  0.58295695     0.13000
N1568       N  0.18093282  0.57382404  0.52896176    -0.82700
H1569       H  0.17898592  0.50686893  0.56698365     0.17900
N1570       N  0.15432852  0.50078627  0.62113477    -0.81300
H1571       H  0.17484761  0.58506584  0.53590658     0.33500
H1572       H  0.19982378  0.58457109  0.52854567     0.38000
H1573       H  0.16034551  0.48945544  0.61436842     0.33500
H1574       H  0.16318787  0.50919069  0.64247853     0.30200
H1575       H  0.17705655  0.58397952  0.67228488     0.33500
H1576       H  0.18315117  0.56365113  0.65858927     0.30200
H1577       H  0.07185468  0.48199275  0.65176015     0.38000
H1578       H  0.06711972  0.49860295  0.62575573     0.33500
C1579       C  0.18845883  0.54239270  0.93928554    -0.20200
C1580       C  0.20034720  0.54719533  0.90955806     0.36000
C1581       C  0.19008056  0.55127409  0.88263324    -0.26200
C1582       C  0.16849697  0.55101413  0.88502737     0.02400
C1583       C  0.15682818  0.54654244  0.91460906     0.27200
C1584       C  0.16684754  0.54228441  0.94122880    -0.25300
N1585       N  0.22270976  0.54803292  0.90672320    -0.82700
H1586       H  0.19880777  0.55450843  0.85966971     0.13000
C1587       C  0.15662347  0.55306461  0.85625173     0.02400
N1588       N  0.13429569  0.54546805  0.91723446    -0.81300
H1589       H  0.15734048  0.53849507  0.96365358     0.17900
C1590       C  0.14003905  0.53188512  0.83977859    -0.26100
C1591       C  0.12445275  0.53179194  0.81676579     0.35900
C1592       C  0.12530094  0.55325170  0.80999278    -0.20200
C1593       C  0.14326652  0.57488307  0.82477101    -0.25400
C1594       C  0.15888858  0.57497794  0.84802331     0.27300
H1595       H  0.13837594  0.51505554  0.84592399     0.13000
N1596       N  0.10742277  0.50970524  0.80078005    -0.82700
H1597       H  0.14419513  0.59150545  0.81959407     0.17900
N1598       N  0.17665150  0.59706743  0.86369576    -0.81300
H1599       H  0.11707147  0.50323854  0.78917911     0.33500
H1600       H  0.09648679  0.49716992  0.81797450     0.38000
H1601       H  0.17611809  0.61157143  0.85465944     0.33500
H1602       H  0.17209475  0.59586129  0.88775443     0.30200
H1603       H  0.12759713  0.54119228  0.94043584     0.33500
H1604       H  0.13771435  0.56266714  0.91290718     0.30200
H1605       H  0.23570316  0.56272877  0.92031981     0.38000
H1606       H  0.22881180  0.55138131  0.88319950     0.33500
C1607       C  0.10816385  0.61297296  0.67655179    -0.20200
C1608       C  0.13283313  0.63166653  0.67407544     0.36000
C1609       C  0.14019821  0.64800194  0.64884603    -0.26200
C1610       C  0.12366571  0.64578699  0.62574012     0.02400
C1611       C  0.09923182  0.62694516  0.62768814     0.27200
C1612       C  0.09174330  0.61079524  0.65303679    -0.25300
N1613       N  0.15041878  0.63389352  0.69671798    -0.82700
H1614       H  0.15903145  0.66236686  0.64684299     0.13000
C1615       C  0.13214561  0.66340926  0.59963104     0.02400
N1616       N  0.08210894  0.62439206  0.60400019    -0.81300
H1617       H  0.07288549  0.59639862  0.65430985     0.17900
C1618       C  0.13044998  0.65535209  0.56816677    -0.26100
C1619       C  0.13746013  0.67135856  0.54278931     0.35900
C1620       C  0.14628554  0.69593550  0.54887315    -0.20200
C1621       C  0.14872103  0.70414268  0.58044408    -0.25400
C1622       C  0.14149822  0.68802610  0.60594084     0.27300
H1623       H  0.12363245  0.63651151  0.56330105     0.13000
N1624       N  0.13608695  0.66266086  0.51090727    -0.82700
H1625       H  0.15557873  0.72300123  0.58515380     0.17900
N1626       N  0.14315485  0.69640723  0.63816661    -0.81300
H1627       H  0.11813589  0.64902292  0.50621126     0.33500
H1628       H  0.14668577  0.65509491  0.50964698     0.38000
H1629       H  0.15041434  0.71497917  0.63875554     0.33500
H1630       H  0.12555487  0.68822567  0.64702199     0.30200
H1631       H  0.06487622  0.60949317  0.60877275     0.33500
H1632       H  0.08080361  0.63958008  0.60566684     0.30200
H1633       H  0.16745917  0.64911062  0.69205194     0.38000
H1634       H  0.15209515  0.61901731  0.69340807     0.33500
C1635       C  0.12686565  0.70727105  0.93561832    -0.20200
C1636       C  0.10207711  0.68889851  0.93341416     0.36000
C1637       C  0.09386367  0.67281217  0.90734675    -0.26200
C1638       C  0.10979519  0.67516979  0.88323808     0.02400
C1639       C  0.13372977  0.69519143  0.88336552     0.27200
C1640       C  0.14203051  0.71121952  0.90952662    -0.25300
N1641       N  0.08558114  0.68609146  0.95819332    -0.82700
H1642       H  0.07535587  0.65753270  0.90674991     0.13000
C1643       C  0.10271020  0.65428667  0.86207359     0.02400
N1644       N  0.14983695  0.69835382  0.85783380    -0.81300
H1645       H  0.16091736  0.72560253  0.91064270     0.17900
C1646       C  0.09424812  0.65331531  0.83113883    -0.26100
C1647       C  0.08768350  0.63343388  0.81087173     0.35900
C1648       C  0.08958297  0.61418035  0.82213972    -0.20200
C1649       C  0.09814892  0.61549385  0.85325355    -0.25400
C1650       C  0.10491052  0.63537515  0.87314670     0.27300
H1651       H  0.09281324  0.66809746  0.82285697     0.13000
N1652       N  0.07932691  0.63291790  0.77904113    -0.82700
H1653       H  0.09998039  0.60108492  0.86209600     0.17900
N1654       N  0.11406830  0.63651515  0.90468699    -0.81300
H1655       H  0.07929911  0.64855857  0.77458815     0.33500
H1656       H  0.06135154  0.61857544  0.77732672     0.38000
H1657       H  0.11425824  0.62099439  0.90939760     0.33500
H1658       H  0.13208887  0.65090542  0.90543296     0.30200
H1659       H  0.16677123  0.71411360  0.86138535     0.33500
H1660       H  0.15260687  0.68406232  0.85844335     0.30200
H1661       H  0.08477081  0.70159082  0.95852565     0.38000
H1662       H  0.06809795  0.67162232  0.95301556     0.33500
C1663       C  0.76429234  0.21693313  0.00143364    -0.20200
C1664       C  0.77228997  0.23485154  0.97791396     0.36000
C1665       C  0.79542359  0.25588699  0.98066132    -0.26200
C1666       C  0.81054259  0.25967369  0.00665337     0.02400
C1667       C  0.80316206  0.24657310  0.52505402     0.27200
C1668       C  0.77992448  0.22552324  0.52399786    -0.25300
N1669       N  0.75671765  0.23202450  0.95184111    -0.82700
H1670       H  0.80157932  0.26969564  0.96273822     0.13000
C1671       C  0.83456525  0.28243589  0.00867221     0.02400
N1672       N  0.81820038  0.25222831  0.55281887    -0.81300
H1673       H  0.77357183  0.21376462  0.54439931     0.17900
C1674       C  0.84060139  0.30171342  0.52431304    -0.26100
C1675       C  0.86289438  0.32373435  0.52641381     0.35900
C1676       C  0.88084016  0.32945188  0.50320554    -0.20200
C1677       C  0.87421139  0.31060769  0.98655519    -0.25400
C1678       C  0.85232777  0.28809223  0.98539573     0.27300
H1679       H  0.82682994  0.29746923  0.54201095     0.13000
N1680       N  0.86712737  0.34050329  0.55169879    -0.82700
H1681       H  0.88784114  0.31488514  0.96862973     0.17900
N1682       N  0.84806317  0.27082086  0.96080361    -0.81300
H1683       H  0.85222650  0.33347878  0.56689404     0.33500
H1684       H  0.86894915  0.35582558  0.54139446     0.38000
H1685       H  0.86289826  0.27772271  0.94551097     0.33500
H1686       H  0.84658256  0.25585735  0.97177572     0.30200
H1687       H  0.80922540  0.23912786  0.57024356     0.33500
H1688       H  0.83331216  0.25165876  0.54609694     0.30200
H1689       H  0.74193059  0.23206960  0.96134173     0.38000
H1690       H  0.76544849  0.24674715  0.93659646     0.33500
C1691       C  0.49055916  0.30563233  0.50042478    -0.20200
C1692       C  0.49988474  0.29913513  0.97353205     0.36000
C1693       C  0.49788998  0.27668312  0.97402047    -0.26200
C1694       C  0.48594745  0.26038134  0.99877298     0.02400
C1695       C  0.47135637  0.26298542  0.51302192     0.27200
C1696       C  0.47182678  0.28464471  0.51458457    -0.25300
N1697       N  0.51308685  0.31570755  0.94838899    -0.82700
H1698       H  0.50616810  0.27203105  0.95526671     0.13000
C1699       C  0.48504910  0.23718507  0.99870665     0.02400
N1700       N  0.45165668  0.24140024  0.52674772    -0.81300
H1701       H  0.45725411  0.28504752  0.52632661     0.17900
C1702       C  0.49470877  0.23236349  0.52687152    -0.26100
C1703       C  0.49424147  0.21074811  0.52887815     0.35900
C1704       C  0.48923679  0.19618857  0.50117114    -0.20200
C1705       C  0.47495629  0.19931570  0.97335160    -0.25400
C1706       C  0.47468972  0.22063491  0.97305536     0.27300
H1707       H  0.49795622  0.24321480  0.54814098     0.13000
N1708       N  0.49891416  0.20375518  0.55899923    -0.82700
H1709       H  0.46670519  0.18657897  0.95373410     0.17900
N1710       N  0.46371637  0.22545125  0.94695228    -0.81300
H1711       H  0.50144825  0.21607183  0.57696387     0.33500
H1712       H  0.51529582  0.20457004  0.55698378     0.38000
H1713       H  0.45702818  0.21158693  0.92991020     0.33500
H1714       H  0.44880801  0.22553643  0.95588533     0.30200
H1715       H  0.43918085  0.24478023  0.53716132     0.33500
H1716       H  0.44256107  0.22902638  0.50817844     0.30200
H1717       H  0.52847001  0.33061331  0.95855385     0.38000
H1718       H  0.51926138  0.30814120  0.93188990     0.33500
C1719       C  0.61600181  0.09715412  0.68762678    -0.20200
C1720       C  0.61811701  0.11807731  0.67460359     0.36000
C1721       C  0.63544567  0.13087972  0.65094133    -0.26200
C1722       C  0.65083355  0.12350844  0.64018571     0.02400
C1723       C  0.64985540  0.10366205  0.65433369     0.27200
C1724       C  0.63262415  0.09082797  0.67812382    -0.25300
N1725       N  0.60190146  0.12557579  0.68400107    -0.82700
H1726       H  0.63635421  0.14617994  0.63983181     0.13000
C1727       C  0.66555836  0.13482471  0.61138969     0.02400
N1728       N  0.66560068  0.09597093  0.64343377    -0.81300
H1729       H  0.63134379  0.07500534  0.68802532     0.17900
C1730       C  0.69075469  0.15028871  0.61371015    -0.26100
C1731       C  0.70494550  0.16104424  0.58636835     0.35900
C1732       C  0.69352034  0.15627475  0.55618054    -0.20200
C1733       C  0.66819530  0.14070190  0.55429497    -0.25400
C1734       C  0.65419422  0.12985924  0.58142704     0.27300
H1735       H  0.69932961  0.15383822  0.63689550     0.13000
N1736       N  0.73079185  0.17638622  0.58921959    -0.82700
H1737       H  0.65911103  0.13688266  0.53145577     0.17900
N1738       N  0.62839927  0.11369423  0.57872581    -0.81300
H1739       H  0.73832398  0.16776234  0.57750007     0.33500
H1740       H  0.73616325  0.17828492  0.61306414     0.38000
H1741       H  0.62278319  0.11208202  0.55503496     0.33500
H1742       H  0.62422531  0.09660140  0.58551290     0.30200
H1743       H  0.66264243  0.08109492  0.65633467     0.33500
H1744       H  0.66099582  0.09013906  0.61978181     0.30200
H1745       H  0.60590447  0.13151926  0.70768183     0.38000
H1746       H  0.60502377  0.14036843  0.67074779     0.33500
C1747       C  0.69313680  0.15272006  0.93997527    -0.20200
C1748       C  0.70349109  0.16080168  0.90950085     0.36000
C1749       C  0.68965652  0.14923988  0.88189714    -0.26200
C1750       C  0.66569208  0.12968096  0.88413618     0.02400
C1751       C  0.65521770  0.12167944  0.91429198     0.27200
C1752       C  0.66897682  0.13310432  0.94171282    -0.25300
N1753       N  0.72796418  0.18056639  0.90628728    -0.82700
H1754       H  0.69766728  0.15549929  0.85864489     0.13000
C1755       C  0.65104092  0.11761249  0.85516839     0.02400
N1756       N  0.63048877  0.10195603  0.91689339    -0.81300
H1757       H  0.66046556  0.12660135  0.96463068     0.17900
C1758       C  0.64562199  0.09445048  0.84711793    -0.26100
C1759       C  0.62771900  0.08015147  0.82428405     0.35900
C1760       C  0.61453536  0.08910738  0.80966806    -0.20200
C1761       C  0.62155205  0.11315168  0.81601593    -0.25400
C1762       C  0.63953091  0.12740167  0.83875319     0.27300
H1763       H  0.65470004  0.08712914  0.85977314     0.13000
N1764       N  0.62234107  0.05631378  0.81695092    -0.82700
H1765       H  0.61202472  0.12048934  0.80462033     0.17900
N1766       N  0.64535267  0.15136516  0.84631730    -0.81300
H1767       H  0.63323823  0.05236485  0.83039368     0.33500
H1768       H  0.62689327  0.05615026  0.79310582     0.38000
H1769       H  0.63539065  0.15597533  0.83196359     0.33500
H1770       H  0.63996191  0.15138897  0.86976981     0.30200
H1771       H  0.62552056  0.09802650  0.94077644     0.33500
H1772       H  0.61951215  0.10750001  0.90721281     0.30200
H1773       H  0.72786060  0.19393016  0.89307557     0.38000
H1774       H  0.73747048  0.17453027  0.89334898     0.33500
C1775       C  0.48401733  0.12898580  0.56135548    -0.20200
C1776       C  0.46843218  0.10422068  0.56751777     0.36000
C1777       C  0.47496061  0.09338161  0.59068442    -0.26200
C1778       C  0.49666972  0.10695029  0.60785532     0.02400
C1779       C  0.51099521  0.13215508  0.60389479     0.27200
C1780       C  0.50450691  0.14297069  0.58060263    -0.25300
N1781       N  0.44653074  0.09007818  0.54930433    -0.82700
H1782       H  0.46375828  0.07409342  0.59416200     0.13000
C1783       C  0.50526543  0.09432730  0.62766569     0.02400
N1784       N  0.53254085  0.14645054  0.62271760    -0.81300
H1785       H  0.51637298  0.16203476  0.57594722     0.17900
C1786       C  0.52731085  0.09656211  0.62000909    -0.26100
C1787       C  0.53632058  0.08500030  0.63794061     0.35900
C1788       C  0.52298604  0.07097226  0.66428971    -0.20200
C1789       C  0.50054378  0.06820173  0.67129360    -0.25400
C1790       C  0.49156564  0.07973867  0.65329410     0.27300
H1791       H  0.53756388  0.10746298  0.59989534     0.13000
N1792       N  0.55936726  0.08833973  0.63024465    -0.82700
H1793       H  0.49018761  0.05737966  0.69140765     0.17900
N1794       N  0.46888445  0.07713334  0.66133042    -0.81300
H1795       H  0.56747602  0.10041819  0.61149804     0.33500
H1796       H  0.55617089  0.07181321  0.62187206     0.38000
H1797       H  0.46102442  0.06572754  0.68078014     0.33500
H1798       H  0.47250420  0.09406036  0.66855147     0.30200
H1799       H  0.54116414  0.16462817  0.61669264     0.33500
H1800       H  0.52724115  0.14520509  0.64648491     0.30200
H1801       H  0.43544681  0.09673833  0.55432413     0.38000
H1802       H  0.43711131  0.07215179  0.55667956     0.33500
C1803       C  0.48262692  0.12617489  0.94028199    -0.20200
C1804       C  0.49594071  0.13903972  0.91319082     0.36000
C1805       C  0.50076359  0.12693040  0.88926497    -0.26200
C1806       C  0.49277469  0.10246022  0.89219672     0.02400
C1807       C  0.47777048  0.08923873  0.91776507     0.27200
C1808       C  0.47277403  0.10117496  0.94138550    -0.25300
N1809       N  0.50567479  0.16444697  0.91080363    -0.82700
H1810       H  0.51211628  0.13695474  0.86932499     0.13000
C1811       C  0.50200672  0.09132079  0.87028775     0.02400
N1812       N  0.46844546  0.06388950  0.92020506    -0.81300
H1813       H  0.46200815  0.09102122  0.96166039     0.17900
C1814       C  0.51473858  0.08151551  0.88311398    -0.26100
C1815       C  0.52389682  0.07078768  0.86352428     0.35900
C1816       C  0.52059849  0.07006053  0.83030217    -0.20200
C1817       C  0.50773352  0.07984952  0.81753332    -0.25400
C1818       C  0.49837413  0.09041094  0.83717417     0.27300
H1819       H  0.51768693  0.08229160  0.90860656     0.13000
N1820       N  0.53642660  0.06064383  0.87757779    -0.82700
H1821       H  0.50501476  0.07941048  0.79203726     0.17900
N1822       N  0.48513458  0.10009835  0.82368260    -0.81300
H1823       H  0.52471524  0.04740850  0.89356892     0.33500
H1824       H  0.55117381  0.07424493  0.89048941     0.38000
H1825       H  0.48422216  0.09815063  0.79888683     0.33500
H1826       H  0.46736388  0.08982382  0.83197638     0.30200
H1827       H  0.45801912  0.05684747  0.94075053     0.33500
H1828       H  0.45683413  0.05520723  0.90083334     0.30200
H1829       H  0.51906574  0.17317791  0.92831432     0.38000
H1830       H  0.51430221  0.17088786  0.88892566     0.33500
C1831       C  0.31630284  0.88600188  0.50338574    -0.20200
C1832       C  0.29912231  0.88021283  0.52774186     0.36000
C1833       C  0.27683941  0.85806393  0.52636959    -0.26200
C1834       C  0.26702028  0.83737684  0.99872744     0.02400
C1835       C  0.28401694  0.84103450  0.97525449     0.27200
C1836       C  0.30719516  0.86210790  0.97630503    -0.25300
N1837       N  0.30412803  0.89692937  0.55344230    -0.82700
H1838       H  0.26360878  0.85350222  0.54498216     0.13000
C1839       C  0.24237424  0.81540398  0.99821082     0.02400
N1840       N  0.27766158  0.82323014  0.95057692    -0.81300
H1841       H  0.32023939  0.86472470  0.95827332     0.17900
C1842       C  0.22608494  0.81229873  0.97411702    -0.26100
C1843       C  0.20258050  0.79160346  0.97278488     0.35900
C1844       C  0.20252822  0.77428405  0.49888811    -0.20200
C1845       C  0.21948947  0.77936392  0.52318893    -0.25400
C1846       C  0.24203859  0.80118106  0.52414834     0.27300
H1847       H  0.23172258  0.82621279  0.95645799     0.13000
N1848       N  0.18599370  0.78911272  0.94832927    -0.82700
H1849       H  0.21545552  0.76604833  0.54119450     0.17900
N1850       N  0.25942040  0.80565990  0.54854904    -0.81300
H1851       H  0.19422698  0.80389044  0.93313025     0.33500
H1852       H  0.17177937  0.78934011  0.95945547     0.38000
H1853       H  0.25247725  0.79110161  0.56406034     0.33500
H1854       H  0.27438175  0.80689958  0.53744245     0.30200
H1855       H  0.29216710  0.82867482  0.93504185     0.33500
H1856       H  0.27442869  0.80749983  0.96139771     0.30200
H1857       H  0.30553296  0.91222800  0.54369919     0.38000
H1858       H  0.28967211  0.88980238  0.56939608     0.33500
C1859       C  0.48100049  0.99761894  0.67763271    -0.20200
C1860       C  0.48432796  0.00318036  0.64489387     0.36000
C1861       C  0.46424390  0.99549326  0.62512481    -0.26200
C1862       C  0.44066130  0.98235560  0.63714775     0.02400
C1863       C  0.43715832  0.97759742  0.67004510     0.27200
C1864       C  0.45738504  0.98536166  0.69001413    -0.25300
N1865       N  0.50805008  0.01648354  0.63136335    -0.82700
H1866       H  0.46711903  0.99912539  0.59986057     0.13000
C1867       C  0.42018403  0.97188565  0.61412784     0.02400
N1868       N  0.41310830  0.96463272  0.68288282    -0.81300
H1869       H  0.45462240  0.98123415  0.71515236     0.17900
C1870       C  0.40455872  0.94674728  0.61223131    -0.26100
C1871       C  0.38833297  0.93577662  0.58665210     0.35900
C1872       C  0.38768957  0.95013844  0.56244170    -0.20200
C1873       C  0.40228611  0.97533338  0.56533842    -0.25400
C1874       C  0.41834075  0.98637535  0.59113454     0.27300
H1875       H  0.40601777  0.93546996  0.62958443     0.13000
N1876       N  0.37381307  0.91002964  0.58425330    -0.82700
H1877       H  0.40163564  0.98641484  0.54690920     0.17900
N1878       N  0.43338748  0.01220140  0.59356435    -0.81300
H1879       H  0.38535808  0.90352147  0.58409086     0.33500
H1880       H  0.36307579  0.90356995  0.60463124     0.38000
H1881       H  0.42996049  0.02023380  0.57466056     0.33500
H1882       H  0.42855904  0.01748259  0.61439534     0.30200
H1883       H  0.41363012  0.96248660  0.70744286     0.33500
H1884       H  0.40568702  0.97519045  0.67960540     0.30200
H1885       H  0.50911692  0.00578830  0.61360741     0.38000
H1886       H  0.51017997  0.03176082  0.62050493     0.33500
C1887       C  0.38604201  0.93782340  0.93952452    -0.20200
C1888       C  0.37908110  0.92274620  0.91211370     0.36000
C1889       C  0.39418267  0.93031751  0.88531465    -0.26200
C1890       C  0.41607170  0.95270949  0.88517700     0.02400
C1891       C  0.42241211  0.96839444  0.91164776     0.27200
C1892       C  0.40731206  0.96084609  0.93838371    -0.25300
N1893       N  0.35716658  0.89946926  0.91153472    -0.82700
H1894       H  0.38910477  0.91837683  0.86479700     0.13000
C1895       C  0.43317227  0.95905636  0.85838635     0.02400
N1896       N  0.44458547  0.99164783  0.91168618    -0.81300
H1897       H  0.41266345  0.97285120  0.95884508     0.17900
C1898       C  0.44099297  0.98038010  0.84169900    -0.26100
C1899       C  0.46014641  0.98914448  0.81999009     0.35900
C1900       C  0.47122222  0.97596525  0.81434795    -0.20200
C1901       C  0.46233445  0.95380426  0.82931822    -0.25400
C1902       C  0.44366154  0.94539662  0.85181527     0.27300
H1903       H  0.43274870  0.99068993  0.84664780     0.13000
N1904       N  0.46873908  0.01159257  0.80410129    -0.82700
H1905       H  0.47101701  0.94382904  0.82496803     0.17900
N1906       N  0.43613721  0.92371652  0.86911808    -0.81300
H1907       H  0.46556681  0.00785184  0.77971050     0.33500
H1908       H  0.45886331  0.01920989  0.81118589     0.38000
H1909       H  0.44568869  0.91587863  0.86147973     0.33500
H1910       H  0.44076643  0.92854339  0.89304695     0.30200
H1911       H  0.44646161  0.00110910  0.93279856     0.33500
H1912       H  0.45892813  0.98886472  0.91113873     0.30200
H1913       H  0.36160205  0.88655522  0.90711039     0.38000
H1914       H  0.34650263  0.89890586  0.89259177     0.33500
C1915       C  0.56229210  0.84407108  0.49801983    -0.20200
C1916       C  0.57310762  0.83757721  0.52172792     0.36000
C1917       C  0.57228759  0.81576321  0.51858941    -0.26200
C1918       C  0.54910455  0.79150288  0.99684284     0.02400
C1919       C  0.53553734  0.79632061  0.97563174     0.27200
C1920       C  0.53566968  0.81774948  0.97932037    -0.25300
N1921       N  0.58513827  0.85322470  0.54865008    -0.82700
H1922       H  0.58042035  0.81062077  0.53673400     0.13000
C1923       C  0.54985459  0.76933416  0.99358206     0.02400
N1924       N  0.52104675  0.77909387  0.95114114    -0.81300
H1925       H  0.52553018  0.82162174  0.96271055     0.17900
C1926       C  0.53963430  0.75671102  0.50376360    -0.26100
C1927       C  0.53781020  0.73435611  0.50315109     0.35900
C1928       C  0.55641953  0.73255807  0.48904251    -0.20200
C1929       C  0.56716813  0.74718399  0.97184373    -0.25400
C1930       C  0.56645955  0.76829277  0.97313080     0.27300
H1931       H  0.52542579  0.75824326  0.51458715     0.13000
N1932       N  0.51703888  0.71342334  0.51642997    -0.82700
H1933       H  0.58016927  0.74649989  0.95653680     0.17900
N1934       N  0.58322581  0.78899556  0.95485204    -0.81300
H1935       H  0.50503964  0.71782205  0.52592492     0.33500
H1936       H  0.50787835  0.70117187  0.49776655     0.38000
H1937       H  0.59471059  0.78550755  0.94181096     0.33500
H1938       H  0.57337571  0.79211395  0.93820053     0.30200
H1939       H  0.51154360  0.78502963  0.93824634     0.33500
H1940       H  0.53262794  0.77800674  0.93502899     0.30200
H1941       H  0.60012785  0.86910745  0.54009540     0.38000
H1942       H  0.59186220  0.84565332  0.56396214     0.33500
C1943       C  0.55924786  0.90659733  0.56200338    -0.20200
C1944       C  0.54601169  0.89213096  0.58819232     0.36000
C1945       C  0.54410416  0.90319583  0.61611896    -0.26200
C1946       C  0.55469359  0.92827434  0.61805283     0.02400
C1947       C  0.56756351  0.94257523  0.59172156     0.27200
C1948       C  0.57001022  0.93167057  0.56435548    -0.25300
N1949       N  0.53402475  0.86634991  0.58611510    -0.82700
H1950       H  0.53406524  0.89223831  0.63629316     0.13000
C1951       C  0.55193790  0.93976871  0.64714149     0.02400
N1952       N  0.57767449  0.96815450  0.59262544    -0.81300
H1953       H  0.58012697  0.94291515  0.54441892     0.17900
C1954       C  0.57279549  0.95843833  0.66232176    -0.26100
C1955       C  0.57139980  0.97317889  0.68565498     0.35900
C1956       C  0.54854608  0.96894414  0.69436374    -0.20200
C1957       C  0.52756577  0.94878290  0.68131765    -0.25400
C1958       C  0.52901813  0.93433278  0.65749943     0.27300
H1959       H  0.59035812  0.96224091  0.65475445     0.13000
N1960       N  0.59314700  0.99287784  0.69971292    -0.82700
H1961       H  0.50994836  0.94525988  0.68802547     0.17900
N1962       N  0.50737923  0.91501312  0.64268487    -0.81300
H1963       H  0.60841528  0.99374496  0.69027346     0.33500
H1964       H  0.59283523  0.98932185  0.72397278     0.38000
H1965       H  0.49201887  0.91332700  0.65315724     0.33500
H1966       H  0.50736998  0.91959208  0.61891902     0.30200
H1967       H  0.58671487  0.97610059  0.57142895     0.33500
H1968       H  0.56330323  0.97085902  0.59416943     0.30200
H1969       H  0.52052837  0.86029200  0.56868524     0.38000
H1970       H  0.52522894  0.85846937  0.60746589     0.33500
C1971       C  0.55162690  0.98140576  0.83683737    -0.20200
C1972       C  0.55617650  0.96409543  0.82416971     0.36000
C1973       C  0.55761057  0.94805763  0.84492652    -0.26200
C1974       C  0.55450763  0.94896558  0.87792440     0.02400
C1975       C  0.54947825  0.96588163  0.89037933     0.27200
C1976       C  0.54844553  0.98202505  0.86989401    -0.25300
N1977       N  0.55947270  0.96291087  0.79050980    -0.82700
H1978       H  0.56143916  0.93500732  0.83543864     0.13000
C1979       C  0.55688421  0.93267864  0.89991650     0.02400
N1980       N  0.54508238  0.96634989  0.92389342    -0.81300
H1981       H  0.54443215  0.99480807  0.87989844     0.17900
C1982       C  0.57415141  0.94308384  0.92446295    -0.26100
C1983       C  0.57409811  0.92918091  0.94963490     0.35900
C1984       C  0.55658477  0.90427966  0.95012555    -0.20200
C1985       C  0.54073283  0.89339634  0.92415355    -0.25400
C1986       C  0.54053028  0.90744676  0.89909085     0.27300
H1987       H  0.58699741  0.96238564  0.92471989     0.13000
N1988       N  0.59133354  0.94032875  0.97523925    -0.82700
H1989       H  0.52743228  0.87420814  0.92450964     0.17900
N1990       N  0.52308262  0.89638567  0.87373477    -0.81300
H1991       H  0.60285789  0.95881273  0.97144505     0.33500
H1992       H  0.60216682  0.93300443  0.97496992     0.38000
H1993       H  0.51245422  0.87771581  0.87662220     0.33500
H1994       H  0.51140485  0.90269465  0.87543158     0.30200
H1995       H  0.54174281  0.97991868  0.92931521     0.33500
H1996       H  0.52928844  0.95000009  0.92939058     0.30200
H1997       H  0.57528935  0.97896494  0.78417053     0.38000
H1998       H  0.56230066  0.94899427  0.78510657     0.33500
loop_ 
_geom_bond_atom_site_label_1 
_geom_bond_atom_site_label_2 
_geom_bond_distance 
_geom_bond_site_symmetry_2 
_ccdc_geom_bond_type 
C1            N6   1.367       .  A
C1         N1001   1.362   1_554  A
C1          C916   1.486       .  S
N2            C3   1.358       .  A
N2         C1000   1.363       .  A
C3            N4   1.353       .  A
C3          C985   1.477       .  S
N4         C1004   1.355       .  A
C5            N6   1.365       .  A
C5         N1003   1.357       .  A
C5          C944   1.502       .  S
C7            N8   1.364   1_556  A
C7         N1011   1.359       .  A
C7          C832   1.488   1_556  S
N8            C9   1.362       .  A
C9         N1009   1.358   1_554  A
C9          C873   1.491       .  S
N10          C11   1.358       .  A
N10        C1008   1.357       .  A
C11          N12   1.357       .  A
C11         C888   1.490       .  S
N12        C1006   1.359       .  A
O13          C21   1.263   1_545  A
O13         Co33   1.879       .  S
O14          C22   1.265       .  A
O14         Co34   1.967       .  S
O15          C23   1.267       .  A
O15         Co35   2.006   1_565  S
O16          C24   1.281       .  A
O16         Co36   2.033       .  S
O17          C23   1.263   1_545  A
O17         Co34   1.983       .  S
O18          C24   1.269       .  A
O18         Co33   1.968       .  S
O19          C22   1.271       .  A
O19         Co36   2.009       .  S
O20          C21   1.299       .  A
O20         Co35   2.120   1_565  S
C21         C972   1.478       .  S
C22         C720   1.487       .  S
C23         C957   1.494       .  S
C24         C761   1.497       .  S
O25          C38   1.261       .  A
O25         Co33   2.003       .  S
O26          C39   1.277       .  A
O26         Co34   2.018       .  S
O27          C40   1.269       .  A
O27         Co35   1.904   1_565  S
O28          C41   1.261       .  A
O28         Co36   1.956       .  S
O29          C41   1.274       .  A
O29         Co34   2.027       .  S
O30          C40   1.293   1_545  A
O30         Co33   2.098       .  S
O31          C38   1.257       .  A
O31         Co36   1.975       .  S
O32          C39   1.272       .  A
O32         Co35   1.986       .  S
Co33         O37   1.982       .  S
Co34         O37   2.024       .  S
Co35         O37   2.007       .  S
Co36         O37   2.022       .  S
C38         C817   1.486       .  S
C39         C860   1.493   1_545  S
C40         C901   1.479       .  S
C41         C789   1.474       .  S
C42          N43   1.365   1_556  A
C42        N1046   1.367       .  A
C42         C705   1.492       .  S
N43          C44   1.358       .  A
C44          N45   1.348   1_554  A
C44         C776   1.474       .  S
N45        C1045   1.350       .  A
C46          N47   1.360       .  A
C46        N1044   1.353       .  A
C46         C804   1.480       .  S
N47        C1041   1.363       .  A
C48          N49   1.365       .  A
C48        N1052   1.365       .  A
C48         C664   1.493       .  S
N49          C50   1.360       .  A
C50          N51   1.355       .  A
C50         C748   1.497       .  S
N51        C1051   1.354       .  A
C52          N53   1.356       .  A
C52        N1050   1.353   1_554  A
C52         C733   1.482       .  S
N53        C1047   1.360   1_554  A
O54          C62   1.277       .  A
O54         Co74   2.014       .  S
O55          C63   1.268       .  A
O55         Co75   2.020       .  S
O56          C64   1.267       .  A
O56         Co76   1.905       .  S
O57          C65   1.260       .  A
O57         Co77   1.958       .  S
O58          C64   1.292       .  A
O58         Co75   2.093       .  S
O59          C65   1.277       .  A
O59         Co74   2.038       .  S
O60          C63   1.255       .  A
O60         Co77   1.968       .  S
O61          C62   1.267       .  A
O61         Co76   1.959       .  S
C62         C649   1.474       .  S
C63         C453   1.493       .  S
C64         C608   1.480       .  S
C65         C481   1.485       .  S
O66          C79   1.262       .  A
O66         Co74   1.964       .  S
O67          C80   1.267       .  A
O67         Co75   1.899       .  S
O68          C81   1.266       .  A
O68         Co76   2.011       .  S
O69          C82   1.281       .  A
O69         Co77   2.026       .  S
O70          C82   1.264       .  A
O70         Co75   1.958       .  S
O71          C81   1.259       .  A
O71         Co74   1.975       .  S
O72          C79   1.273       .  A
O72         Co77   2.022       .  S
O73          C80   1.293       .  A
O73         Co76   2.094       .  S
Co74         O78   2.017       .  S
Co75         O78   1.993       .  S
Co76         O78   2.008       .  S
Co77         O78   2.016       .  S
C79         C524   1.492       .  S
C80         C552   1.483       .  S
C81         C593   1.483       .  S
C82         C496   1.482       .  S
C83          N88   1.365   1_556  A
C83        N1083   1.369       .  A
C83         C412   1.498       .  S
N84          C85   1.359       .  A
N84        C1082   1.363       .  A
C85          N86   1.357       .  A
C85         C580   1.484       .  S
N86        C1086   1.355       .  A
C87          N88   1.358       .  A
C87        N1085   1.350   1_554  A
C87         C565   1.483       .  S
C89          N94   1.359       .  A
C89        N1089   1.364   1_554  A
C89         C677   1.486       .  S
N90          C91   1.362       .  A
N90        C1088   1.363       .  A
C91          N92   1.357       .  A
C91         C537   1.487       .  S
N92        C1092   1.356       .  A
C93          N94   1.357       .  A
C93        N1091   1.357       .  A
C93         C509   1.483       .  S
C95         N100   1.369       .  A
C95        N1095   1.365       .  A
C95         C384   1.489       .  S
N96          C97   1.365       .  A
N96        C1094   1.369       .  A
C97        N1097   1.352       .  A
C97         C440   1.484       .  S
N98          C99   1.351       .  A
N98        C1096   1.350       .  A
C99         N100   1.364       .  A
C99         C468   1.485       .  S
C101        N106   1.359   1_556  A
C101       N1101   1.360       .  A
C101        C845   1.486       .  S
N102        C103   1.357       .  A
N102       C1100   1.360       .  A
C103       N1103   1.352       .  A
C103        C636   1.470       .  S
N104        C105   1.357   1_556  A
N104       C1102   1.358       .  A
C105        N106   1.359       .  A
C105        C621   1.494       .  S
O107        C115   1.279       .  A
O107       Co127   2.024       .  S
O108        C116   1.267       .  A
O108       Co128   2.015       .  S
O109        C117   1.269       .  A
O109       Co129   1.900       .  S
O110        C118   1.259       .  A
O110       Co130   1.957       .  S
O111        C117   1.298       .  A
O111       Co128   2.118       .  S
O112        C118   1.274       .  A
O112       Co127   2.029       .  S
O113        C116   1.256       .  A
O113       Co130   1.962       .  S
O114        C115   1.272       .  A
O114       Co129   1.979       .  S
C115        C356   1.493       .  S
C116        C160   1.482       .  S
C117        C341   1.488       .  S
C118        C201   1.484       .  S
O119        C132   1.264       .  A
O119       Co127   1.968       .  S
O120        C133   1.268       .  A
O120       Co128   1.893       .  S
O121        C134   1.268       .  A
O121       Co129   2.016       .  S
O122        C135   1.276       .  A
O122       Co130   2.018       .  S
O123        C135   1.271       .  A
O123       Co128   1.978       .  S
O124        C134   1.259       .  A
O124       Co127   1.972       .  S
O125        C132   1.275       .  A
O125       Co130   2.028       .  S
O126        C133   1.298       .  A
O126       Co129   2.113       .  S
Co127       O131   2.018       .  S
Co128       O131   1.997       .  S
Co129       O131   2.010       .  S
Co130       O131   2.021       .  S
C132        C257   1.493       .  S
C133        C285   1.484       .  S
C134        C300   1.491       .  S
C135        C216   1.493       .  S
C136        N137   1.364   1_556  A
C136       N1140   1.365       .  A
C136        C692   1.496       .  S
N137        C138   1.359       .  A
C138        N139   1.356       .  A
C138        C369   1.487       .  S
N139       C1139   1.358   1_554  A
C140        N141   1.359       .  A
C140       N1138   1.358       .  A
C140        C328   1.498       .  S
N141       C1135   1.361       .  A
C142        N143   1.364   1_556  A
C142       N1146   1.364       .  A
C142        C425   1.486       .  S
N143        C144   1.358       .  A
C144        N145   1.351   1_554  A
C144        C188   1.477       .  S
N145       C1145   1.353       .  A
C146        N147   1.359       .  A
C146       N1144   1.353       .  A
C146        C173   1.483       .  S
N147       C1141   1.363       .  A
C148        N149   1.364   1_556  A
C148       N1152   1.367       .  A
C148        C397   1.504       .  S
N149        C150   1.360       .  A
C150        N151   1.357       .  A
C150        C313   1.493       .  S
N151       C1151   1.356   1_554  A
C152        N153   1.362       .  A
C152       N1150   1.356       .  A
C152        C272   1.484       .  S
N153       C1147   1.366       .  A
C154        N155   1.361   1_556  A
C154       N1158   1.363       .  A
C154        C929   1.487       .  S
N155        C156   1.358       .  A
C156        N157   1.358   1_554  A
C156        C244   1.492       .  S
N157       C1157   1.360       .  A
C158        N159   1.361       .  A
C158       N1156   1.359       .  A
C158        C229   1.493       .  S
N159       C1153   1.361       .  A
C160        C161   1.412       .  A
C160        C165   1.410       .  A
C161        C162   1.405       .  A
C161        N166   1.438       .  S
C162        C163   1.404       .  A
C162        H167   1.084       .  S
C163        C168   1.478       .  S
C163        C164   1.405       .  A
C164        C165   1.402       .  A
C164        N169   1.438       .  S
C165        H170   1.083       .  S
N166        H186   1.045       .  S
N166        H187   1.046       .  S
C168        C171   1.403       .  A
C168        C175   1.405       .  A
N169        H184   1.046       .  S
N169        H185   1.046       .  S
C171        C172   1.407       .  A
C171        H176   1.084       .  S
C172        C173   1.415       .  A
C172        N177   1.437       .  S
C173        C174   1.408       .  A
C174        C175   1.401       .  A
C174        H178   1.084       .  S
C175        N179   1.438       .  S
N177        H180   1.046       .  S
N177        H181   1.045       .  S
N179        H182   1.046       .  S
N179        H183   1.046       .  S
C188        C189   1.413       .  A
C188        C193   1.404       .  A
C189        C190   1.403       .  A
C189        N194   1.438       .  S
C190        C191   1.400       .  A
C190        H195   1.084       .  S
C191        C196   1.480       .  S
C191        C192   1.410       .  A
C192        C193   1.406       .  A
C192        N197   1.437       .  S
C193        H198   1.084       .  S
N194        H214   1.045       .  S
N194        H215   1.046       .  S
C196        C199   1.401       .  A
C196        C203   1.407       .  A
N197        H212   1.046       .  S
N197        H213   1.046       .  S
C199        C200   1.405       .  A
C199        H204   1.084       .  S
C200        C201   1.416       .  A
C200        N205   1.438       .  S
C201        C202   1.407       .  A
C202        C203   1.405       .  A
C202        H206   1.084       .  S
C203        N207   1.437       .  S
N205        H208   1.046       .  S
N205        H209   1.044       .  S
N207        H210   1.046       .  S
N207        H211   1.046       .  S
C216        C217   1.417       .  A
C216        C221   1.408       .  A
C217        C218   1.402       .  A
C217        N222   1.433       .  S
C218        C219   1.400       .  A
C218        H223   1.084       .  S
C219        C224   1.487       .  S
C219        C220   1.411       .  A
C220        C221   1.408       .  A
C220        N225   1.437       .  S
C221        H226   1.083       .  S
N222        H242   1.046       .  S
N222        H243   1.046       .  S
C224        C227   1.400       .  A
C224        C231   1.411       .  A
N225        H240   1.046       .  S
N225        H241   1.046       .  S
C227        C228   1.400       .  A
C227        H232   1.084       .  S
C228        C229   1.415       .  A
C228        N233   1.433       .  S
C229        C230   1.410       .  A
C230        C231   1.411       .  A
C230        H234   1.083       .  S
C231        N235   1.437       .  S
N233        H236   1.046       .  S
N233        H237   1.046       .  S
N235        H238   1.046       .  S
N235        H239   1.046       .  S
C244        C245   1.418       .  A
C244        C249   1.407       .  A
C245        C246   1.410       .  A
C245        N250   1.437       .  S
C246        C247   1.400       .  A
C246        H251   1.084       .  S
C247        C252   1.483       .  S
C247        C248   1.409       .  A
C248        C249   1.406       .  A
C248        N253   1.439       .  S
C249        H254   1.083       .  S
N250        H270   1.046       .  S
N250        H271   1.046       .  S
C252        C255   1.401       .  A
C252        C259   1.408       .  A
N253        H268   1.046       .  S
N253        H269   1.045       .  S
C255        C256   1.407       .  A
C255        H260   1.084       .  S
C256        C257   1.415       .  A
C256        N261   1.432       .  S
C257        C258   1.409       .  A
C258        C259   1.406       .  A
C258        H262   1.083       .  S
C259        N263   1.438       .  S
N261        H264   1.046       .  S
N261        H265   1.046       .  S
N263        H266   1.046       .  S
N263        H267   1.045       .  S
C272        C273   1.412       .  A
C272        C277   1.406       .  A
C273        C274   1.403       .  A
C273        N278   1.438       .  S
C274        C275   1.400       .  A
C274        H279   1.084       .  S
C275        C280   1.485       .  S
C275        C276   1.410       .  A
C276        C277   1.414       .  A
C276        N281   1.437       .  S
C277        H282   1.083       .  S
N278        H299   1.046       .  S
N278       H1297   1.046       .  S
C280        C283   1.404       .  A
C280        C287   1.409       .  A
N281        H296   1.046       .  S
N281        H297   1.046       .  S
C283        C284   1.408       .  A
C283        H288   1.084       .  S
C284        C285   1.410       .  A
C284        N289   1.432       .  S
C285        C286   1.405       .  A
C286        C287   1.407       .  A
C286        H290   1.084       .  S
C287        N291   1.437       .  S
N289        H292   1.045       .  S
N289        H293   1.046       .  S
N291        H294   1.046       .  S
N291        H295   1.046       .  S
H298       N1277   1.046       .  S
C300        C301   1.418       .  A
C300        C305   1.407       .  A
C301        C302   1.406       .  A
C301        N306   1.438       .  S
C302        C303   1.402       .  A
C302        H307   1.084       .  S
C303        C308   1.490       .  S
C303        C304   1.411       .  A
C304        C305   1.409       .  A
C304        N309   1.438       .  S
C305        H310   1.083       .  S
N306        H326   1.046       .  S
N306        H327   1.046       .  S
C308        C311   1.404       .  A
C308        C315   1.412       .  A
N309        H324   1.046       .  S
N309        H325   1.046       .  S
C311        C312   1.408       .  A
C311        H316   1.084       .  S
C312        C313   1.415       .  A
C312        N317   1.432       .  S
C313        C314   1.407       .  A
C314        C315   1.405       .  A
C314        H318   1.083       .  S
C315        N319   1.439       .  S
N317        H320   1.046       .  S
N317        H321   1.046       .  S
N319        H322   1.046       .  S
N319        H323   1.046       .  S
C328        C329   1.416       .  A
C328        C333   1.409       .  A
C329        C330   1.408       .  A
C329        N334   1.432       .  S
C330        C331   1.405       .  A
C330        H335   1.084       .  S
C331        C336   1.494       .  S
C331        C332   1.412       .  A
C332        C333   1.405       .  A
C332        N337   1.438       .  S
C333        H338   1.083       .  S
N334        H354   1.046       .  S
N334        H355   1.046       .  S
C336        C339   1.405       .  A
C336        C343   1.414       .  A
N337        H352   1.046       .  S
N337        H353   1.046       .  S
C339        C340   1.404       .  A
C339        H344   1.084       .  S
C340        C341   1.411       .  A
C340        N345   1.432       .  S
C341        C342   1.406       .  A
C342        C343   1.411       .  A
C342        H346   1.084       .  S
C343        N347   1.438       .  S
N345        H348   1.045       .  S
N345        H349   1.045       .  S
N347        H350   1.046       .  S
N347        H351   1.046       .  S
C356        C357   1.416       .  A
C356        C361   1.409       .  A
C357        C358   1.402       .  A
C357        N362   1.438       .  S
C358        C359   1.403       .  A
C358        H363   1.083       .  S
C359        C364   1.497       .  S
C359        C360   1.414       .  A
C360        C361   1.413       .  A
C360        N365   1.437       .  S
C361        H366   1.083       .  S
N362        H382   1.043       .  S
N362        H383   1.046       .  S
C364        C367   1.407       .  A
C364        C371   1.414       .  A
N365        H380   1.046       .  S
N365        H381   1.045       .  S
C367        C368   1.411       .  A
C367        H372   1.083       .  S
C368        C369   1.414       .  A
C368        N373   1.437       .  S
C369        C370   1.404       .  A
C370        C371   1.404       .  A
C370        H374   1.084       .  S
C371        N375   1.438       .  S
N373        H376   1.046       .  S
N373        H377   1.046       .  S
N375        H378   1.046       .  S
N375        H379   1.045       .  S
C384        C385   1.414       .  A
C384       C1388   1.407       .  A
C385        C386   1.410       .  A
C385        N390   1.437       .  S
C386       C1386   1.402       .  A
C386        H391   1.084       .  S
C387        C392   1.497       .  S
C387        C388   1.412   1_554  A
C387       C1385   1.407       .  A
C388        C389   1.408       .  A
C388        N393   1.438       .  S
C389       C1383   1.407   1_556  A
C389        H394   1.084       .  S
N390        H410   1.046       .  S
N390        H411   1.046       .  S
C392        C399   1.410       .  A
C392       C1394   1.405   1_554  A
N393        H408   1.046       .  S
N393        H409   1.046       .  S
C395        C396   1.409       .  A
C395       C1391   1.402       .  A
C395        H400   1.084       .  S
C396       C1396   1.413       .  A
C396        N401   1.437       .  S
C397        C398   1.411   1_556  A
C397       C1395   1.417       .  A
C398        C399   1.409       .  A
C398        H402   1.083       .  S
C399        N403   1.438       .  S
N401        H404   1.046       .  S
N401        H405   1.046       .  S
N403        H406   1.046       .  S
N403        H407   1.046       .  S
C412        C413   1.417   1_556  A
C412       C1416   1.409       .  A
C413        C414   1.404       .  A
C413        N418   1.432       .  S
C414        C415   1.402   1_554  A
C414        H419   1.084       .  S
C415        C420   1.494       .  S
C415       C1415   1.412       .  A
C416        C417   1.407       .  A
C416       C1414   1.408       .  A
C416        N421   1.438       .  S
C417       C1411   1.408       .  A
C417        H422   1.083       .  S
N418        H438   1.046       .  S
N418        H439   1.046       .  S
C420        C427   1.413   1_556  A
C420       C1422   1.406       .  A
N421        H436   1.046       .  S
N421        H437   1.046       .  S
C423        C424   1.402       .  A
C423       C1419   1.402       .  A
C423        H428   1.084       .  S
C424       C1424   1.409       .  A
C424        N429   1.432       .  S
C425        C426   1.404   1_556  A
C425       C1423   1.411       .  A
C426        C427   1.406       .  A
C426        H430   1.084       .  S
C427        N431   1.438       .  S
N429        H432   1.046       .  S
N429        H433   1.045       .  S
N431        H434   1.046       .  S
N431        H435   1.046       .  S
C440        C441   1.414       .  A
C440        C445   1.404       .  A
C441        C442   1.401       .  A
C441        N446   1.433       .  S
C442        C443   1.398       .  A
C442        H447   1.084   1_655  S
C443        C448   1.483       .  S
C443        C444   1.412       .  A
C444        C445   1.411       .  A
C444        N449   1.437       .  S
C445        H450   1.083       .  S
N446        H466   1.046       .  S
N446        H467   1.046   1_655  S
C448        C451   1.397       .  A
C448        C455   1.410       .  A
N449        H464   1.046       .  S
N449        H465   1.046       .  S
C451        C452   1.407   1_655  A
C451        H456   1.084       .  S
C452        C453   1.423       .  A
C452        N457   1.438       .  S
C453        C454   1.405       .  A
C454        C455   1.407   1_455  A
C454        H458   1.083       .  S
C455        N459   1.438       .  S
N457        H460   1.046       .  S
N457        H461   1.046       .  S
N459        H462   1.046       .  S
N459        H463   1.046       .  S
C468        C469   1.412       .  A
C468        C473   1.408       .  A
C469        C470   1.411       .  A
C469        N474   1.437       .  S
C470        C471   1.404       .  A
C470        H475   1.084       .  S
C471        C476   1.483       .  S
C471        C472   1.406       .  A
C472        C473   1.405       .  A
C472        N477   1.438   1_655  S
C473        H478   1.084       .  S
N474        H494   1.045       .  S
N474        H495   1.046       .  S
C476        C479   1.399   1_655  A
C476        C483   1.410       .  A
N477        H492   1.046       .  S
N477        H493   1.046       .  S
C479        C480   1.406       .  A
C479        H484   1.084       .  S
C480        C481   1.417       .  A
C480        N485   1.438       .  S
C481        C482   1.405       .  A
C482        C483   1.408   1_455  A
C482        H486   1.084       .  S
C483        N487   1.437       .  S
N485        H488   1.046       .  S
N485        H489   1.044       .  S
N487        H490   1.046       .  S
N487        H491   1.046       .  S
C496        C497   1.419       .  A
C496        C501   1.404   1_455  A
C497        C498   1.401   1_455  A
C497        N502   1.433       .  S
C498        C499   1.404       .  A
C498        H503   1.084   1_655  S
C499        C504   1.485       .  S
C499        C500   1.412       .  A
C500        C501   1.400       .  A
C500        N505   1.439       .  S
C501        H506   1.084       .  S
N502        H522   1.046       .  S
N502        H523   1.044       .  S
C504        C507   1.402       .  A
C504        C511   1.412       .  A
N505        H520   1.046       .  S
N505        H521   1.046       .  S
C507        C508   1.400       .  A
C507        H512   1.084       .  S
C508        C509   1.411       .  A
C508        N513   1.431       .  S
C509        C510   1.406       .  A
C510        C511   1.406       .  A
C510        H514   1.084       .  S
C511        N515   1.438   1_655  S
N513        H516   1.046       .  S
N513        H517   1.045       .  S
N515        H518   1.046       .  S
N515        H519   1.046       .  S
C524        C525   1.419   1_455  A
C524        C529   1.410       .  A
C525        C526   1.405       .  A
C525        N530   1.438       .  S
C526        C527   1.399       .  A
C526        H531   1.084       .  S
C527        C532   1.481       .  S
C527        C528   1.407   1_655  A
C528        C529   1.407       .  A
C528        N533   1.438       .  S
C529        H534   1.083       .  S
N530        H550   1.046       .  S
N530        H551   1.046       .  S
C532        C535   1.402       .  A
C532        C539   1.408       .  A
N533        H548   1.046       .  S
N533        H549   1.046       .  S
C535        C536   1.406       .  A
C535        H540   1.084       .  S
C536        C537   1.411       .  A
C536        N541   1.432       .  S
C537        C538   1.408       .  A
C538        C539   1.404       .  A
C538        H542   1.083       .  S
C539        N543   1.438       .  S
N541        H544   1.046       .  S
N541        H545   1.046       .  S
N543        H546   1.046       .  S
N543        H547   1.046   1_655  S
C552        C553   1.414       .  A
C552        C557   1.408       .  A
C553        C554   1.405       .  A
C553        N558   1.438       .  S
C554        C555   1.402       .  A
C554        H559   1.084       .  S
C555        C560   1.476       .  S
C555        C556   1.406       .  A
C556        C557   1.405       .  A
C556        N561   1.438       .  S
C557        H562   1.084       .  S
N558        H578   1.045       .  S
N558        H579   1.046       .  S
C560        C563   1.396       .  A
C560        C567   1.409       .  A
N561        H576   1.046       .  S
N561        H577   1.045       .  S
C563        C564   1.398       .  A
C563        H568   1.084       .  S
C564        C565   1.416       .  A
C564        N569   1.439       .  S
C565        C566   1.407       .  A
C566        C567   1.411       .  A
C566        H570   1.083       .  S
C567        N571   1.437       .  S
N569        H572   1.046       .  S
N569        H573   1.045       .  S
N571        H574   1.046       .  S
N571        H575   1.045       .  S
C580        C581   1.415       .  A
C580        C585   1.404       .  A
C581        C582   1.411       .  A
C581        N586   1.437       .  S
C582        C583   1.403       .  A
C582        H587   1.083       .  S
C583        C588   1.482       .  S
C583        C584   1.409       .  A
C584        C585   1.401       .  A
C584        N589   1.439       .  S
C585        H590   1.084       .  S
N586        H606   1.046       .  S
N586        H607   1.046       .  S
C588        C591   1.401       .  A
C588        C595   1.410       .  A
N589        H604   1.046       .  S
N589        H605   1.046       .  S
C591        C592   1.400       .  A
C591        H596   1.084       .  S
C592        C593   1.412       .  A
C592        N597   1.433       .  S
C593        C594   1.406       .  A
C594        C595   1.408       .  A
C594        H598   1.083       .  S
C595        N599   1.437       .  S
N597        H600   1.046       .  S
N597        H601   1.046       .  S
N599        H602   1.046       .  S
N599        H603   1.046       .  S
C608        C609   1.413       .  A
C608        C613   1.406       .  A
C609        C610   1.407       .  A
C609        N614   1.438       .  S
C610        C611   1.405       .  A
C610        H615   1.084       .  S
C611        C616   1.484       .  S
C611        C612   1.409       .  A
C612        C613   1.403       .  A
C612        N617   1.438       .  S
C613        H618   1.084       .  S
N614        H634   1.045       .  S
N614        H635   1.046       .  S
C616        C619   1.401       .  A
C616        C623   1.408       .  A
N617        H632   1.046       .  S
N617        H633   1.045       .  S
C619        C620   1.401       .  A
C619        H624   1.084       .  S
C620        C621   1.417       .  A
C620        N625   1.432       .  S
C621        C622   1.410       .  A
C622        C623   1.406       .  A
C622        H626   1.083       .  S
C623        N627   1.438       .  S
N625        H628   1.046       .  S
N625        H629   1.046       .  S
N627        H630   1.046       .  S
N627        H631   1.046       .  S
C636        C637   1.410       .  A
C636        C641   1.400       .  A
C637        C638   1.402       .  A
C637        N642   1.438       .  S
C638        C639   1.404       .  A
C638        H643   1.084       .  S
C639        C644   1.484       .  S
C639        C640   1.414       .  A
C640        C641   1.401       .  A
C640        N645   1.438       .  S
C641        H646   1.084       .  S
N642        H662   1.045       .  S
N642        H663   1.046       .  S
C644        C647   1.403       .  A
C644        C651   1.414       .  A
N645        H660   1.046       .  S
N645        H661   1.046       .  S
C647        C648   1.404       .  A
C647        H652   1.083       .  S
C648        C649   1.413       .  A
C648        N653   1.438       .  S
C649        C650   1.403       .  A
C650        C651   1.399       .  A
C650        H654   1.084       .  S
C651        N655   1.439       .  S
N653        H656   1.046       .  S
N653        H657   1.046       .  S
N655        H658   1.046       .  S
N655        H659   1.046       .  S
C664        C665   1.417       .  A
C664       C1668   1.407       .  A
C665        C666   1.408       .  A
C665        N670   1.437       .  S
C666        C667   1.402       .  A
C666        H671   1.084       .  S
C667        C672   1.491       .  S
C667       C1667   1.412       .  A
C668        C669   1.406       .  A
C668       C1666   1.408       .  A
C668        N673   1.438       .  S
C669       C1663   1.408       .  A
C669        H674   1.084       .  S
N670        H690   1.046       .  S
N670        H691   1.046       .  S
C672        C679   1.413       .  A
C672       C1674   1.402       .  A
N673        H688   1.046       .  S
N673        H689   1.046       .  S
C675        C676   1.406       .  A
C675       C1671   1.401       .  A
C675        H680   1.084       .  S
C676        C677   1.417       .  A
C676        N681   1.437       .  S
C677       C1677   1.404   1_554  A
C678        C679   1.409       .  A
C678       C1676   1.404       .  A
C678        H682   1.084       .  S
C679        N683   1.437       .  S
N681        H684   1.046       .  S
N681        H685   1.046       .  S
N683        H686   1.046       .  S
N683        H687   1.046       .  S
C692        C697   1.409   1_556  A
C692       C1692   1.417       .  A
C693        C694   1.408       .  A
C693       C1691   1.413       .  A
C693        N698   1.438       .  S
C694        C695   1.402       .  A
C694        H699   1.084       .  S
C695        C700   1.483       .  S
C695       C1695   1.410       .  A
C696        C697   1.408       .  A
C696       C1694   1.410   1_554  A
C696        N701   1.438       .  S
C697        H702   1.083       .  S
N698        H718   1.046       .  S
N698        H719   1.046       .  S
C700        C707   1.407       .  A
C700       C1702   1.399       .  A
N701        H716   1.046       .  S
N701        H717   1.046       .  S
C703        C704   1.408       .  A
C703       C1699   1.403   1_554  A
C703        H708   1.084       .  S
C704        C705   1.417   1_554  A
C704        N709   1.438       .  S
C705       C1705   1.407       .  A
C706        C707   1.408       .  A
C706       C1704   1.411       .  A
C706        H710   1.083       .  S
C707        N711   1.438       .  S
N709        H712   1.046       .  S
N709        H713   1.046       .  S
N711        H714   1.046       .  S
N711        H715   1.046       .  S
C720        C721   1.420       .  A
C720        C725   1.408       .  A
C721        C722   1.403       .  A
C721        N726   1.438       .  S
C722        C723   1.398       .  A
C722        H727   1.084       .  S
C723        C728   1.474       .  S
C723        C724   1.406       .  A
C724        C725   1.404       .  A
C724        N729   1.438       .  S
C725        H730   1.083       .  S
N726        H746   1.046       .  S
N726        H747   1.046       .  S
C728        C731   1.400       .  A
C728        C735   1.407       .  A
N729        H744   1.046       .  S
N729        H745   1.046       .  S
C731        C732   1.404       .  A
C731        H736   1.084       .  S
C732        C733   1.412       .  A
C732        N737   1.432       .  S
C733        C734   1.407       .  A
C734        C735   1.401       .  A
C734        H738   1.083       .  S
C735        N739   1.439       .  S
N737        H740   1.046       .  S
N737        H741   1.046       .  S
N739        H742   1.046       .  S
N739        H743   1.046       .  S
C748        C749   1.416       .  A
C748        C753   1.410       .  A
C749        C750   1.410       .  A
C749        N754   1.431       .  S
C750        C751   1.403       .  A
C750        H755   1.084       .  S
C751        C756   1.485       .  S
C751        C752   1.407       .  A
C752        C753   1.401       .  A
C752        N757   1.439       .  S
C753        H758   1.083       .  S
N754        H774   1.046       .  S
N754        H775   1.046       .  S
C756        C759   1.401       .  A
C756        C763   1.407       .  A
N757        H772   1.046       .  S
N757        H773   1.046       .  S
C759        C760   1.408       .  A
C759        H764   1.084       .  S
C760        C761   1.420       .  A
C760        N765   1.438       .  S
C761        C762   1.410       .  A
C762        C763   1.408       .  A
C762        H766   1.083       .  S
C763        N767   1.438       .  S
N765        H768   1.046       .  S
N765        H769   1.045       .  S
N767        H770   1.046       .  S
N767        H771   1.046       .  S
C776        C777   1.414       .  A
C776        C781   1.402       .  A
C777        C778   1.401       .  A
C777        N782   1.438       .  S
C778        C779   1.400       .  A
C778        H783   1.084       .  S
C779        C784   1.480       .  S
C779        C780   1.412       .  A
C780        C781   1.407       .  A
C780        N785   1.437       .  S
C781        H786   1.084       .  S
N782        H802   1.045       .  S
N782        H803   1.046       .  S
C784        C787   1.404       .  A
C784        C791   1.408       .  A
N785        H800   1.046       .  S
N785        H801   1.046       .  S
C787        C788   1.405       .  A
C787        H792   1.084       .  S
C788        C789   1.412       .  A
C788        N793   1.438       .  S
C789        C790   1.404       .  A
C790        C791   1.402       .  A
C790        H794   1.084       .  S
C791        N795   1.438       .  S
N793        H796   1.046       .  S
N793        H797   1.045       .  S
N795        H798   1.046       .  S
N795        H799   1.046       .  S
C804        C805   1.413       .  A
C804        C809   1.407       .  A
C805        C806   1.404       .  A
C805        N810   1.438       .  S
C806        C807   1.401       .  A
C806        H811   1.084       .  S
C807        C812   1.479       .  S
C807        C808   1.407       .  A
C808        C809   1.405       .  A
C808        N813   1.438       .  S
C809        H814   1.084       .  S
N810        H830   1.046       .  S
N810        H831   1.046       .  S
C812        C815   1.402       .  A
C812        C819   1.406       .  A
N813        H828   1.046       .  S
N813        H829   1.046       .  S
C815        C816   1.402       .  A
C815        H820   1.084       .  S
C816        C817   1.413       .  A
C816        N821   1.432       .  S
C817        C818   1.409       .  A
C818        C819   1.404       .  A
C818        H822   1.083       .  S
C819        N823   1.437       .  S
N821        H824   1.046       .  S
N821        H825   1.046       .  S
N823        H826   1.046       .  S
N823        H827   1.046       .  S
C832        C833   1.415       .  A
C832       C1836   1.408   1_554  A
C833        C834   1.408       .  A
C833        N838   1.437       .  S
C834       C1834   1.402   1_554  A
C834        H839   1.084       .  S
C835        C840   1.481       .  S
C835        C836   1.408       .  A
C835       C1833   1.402       .  A
C836        C837   1.404       .  A
C836        N841   1.438       .  S
C837       C1831   1.407       .  A
C837        H842   1.083       .  S
N838        H858   1.046       .  S
N838        H859   1.046       .  S
C840        C843   1.400       .  A
C840       C1846   1.407       .  A
N841        H856   1.046       .  S
N841        H857   1.046       .  S
C843        C844   1.406       .  A
C843        H848   1.084       .  S
C844       C1844   1.420       .  A
C844        N849   1.438       .  S
C845        C846   1.407   1_556  A
C845       C1843   1.415       .  A
C846        C847   1.405       .  A
C846        H850   1.083       .  S
C847       C1839   1.407   1_554  A
C847        N851   1.438       .  S
N849        H852   1.046       .  S
N849        H853   1.046       .  S
N851        H854   1.046       .  S
N851        H855   1.046       .  S
C860        C861   1.415   1_565  A
C860        C865   1.408       .  A
C861        C862   1.401   1_545  A
C861        N866   1.433       .  S
C862        C863   1.403       .  A
C862        H867   1.084       .  S
C863        C868   1.495       .  S
C863        C864   1.413       .  A
C864        C865   1.412       .  A
C864        N869   1.437       .  S
C865        H870   1.083       .  S
N866        H886   1.046       .  S
N866        H887   1.046       .  S
C868        C871   1.406       .  A
C868        C875   1.412       .  A
N869        H884   1.046       .  S
N869        H885   1.046       .  S
C871        C872   1.410       .  A
C871        H876   1.083       .  S
C872        C873   1.415       .  A
C872        N877   1.437       .  S
C873        C874   1.407       .  A
C874        C875   1.407       .  A
C874        H878   1.084       .  S
C875        N879   1.438   1_565  S
N877        H880   1.046       .  S
N877        H881   1.045       .  S
N879        H882   1.046       .  S
N879        H883   1.046       .  S
C888        C889   1.417       .  A
C888        C893   1.408       .  A
C889        C890   1.404       .  A
C889        N894   1.432       .  S
C890        C891   1.399       .  A
C890        H895   1.084       .  S
C891        C896   1.477       .  S
C891        C892   1.408       .  A
C892        C893   1.403       .  A
C892        N897   1.439       .  S
C893        H898   1.083       .  S
N894        H914   1.046       .  S
N894        H915   1.046       .  S
C896        C899   1.398       .  A
C896        C903   1.410       .  A
N897        H912   1.046       .  S
N897        H913   1.046       .  S
C899        C900   1.402       .  A
C899        H904   1.084   1_565  S
C900        C901   1.414       .  A
C900        N905   1.436   1_565  S
C901        C902   1.404       .  A
C902        C903   1.407       .  A
C902        H906   1.083       .  S
C903        N907   1.438       .  S
N905        H908   1.046       .  S
N905        H909   1.046       .  S
N907        H910   1.046       .  S
N907        H911   1.046       .  S
C916        C917   1.413       .  A
C916       C1920   1.406   1_554  A
C917        C918   1.410       .  A
C917        N922   1.437       .  S
C918       C1918   1.403   1_554  A
C918        H923   1.084       .  S
C919        C924   1.480       .  S
C919        C920   1.407       .  A
C919       C1917   1.401       .  A
C920        C921   1.406       .  A
C920        N925   1.438       .  S
C921       C1915   1.406       .  A
C921        H926   1.084       .  S
N922        H942   1.046       .  S
N922        H943   1.046       .  S
C924        C931   1.409       .  A
C924       C1926   1.401       .  A
N925        H940   1.046       .  S
N925        H941   1.045       .  S
C927        C928   1.407       .  A
C927       C1923   1.401   1_554  A
C927        H932   1.084       .  S
C928        C929   1.414   1_554  A
C928        N933   1.438       .  S
C929       C1929   1.405       .  A
C930        C931   1.407       .  A
C930       C1928   1.403       .  A
C930        H934   1.084       .  S
C931        N935   1.438       .  S
N933        H936   1.046       .  S
N933        H937   1.046       .  S
N935        H938   1.046       .  S
N935        H939   1.045       .  S
C944        C945   1.420       .  A
C944        C949   1.412       .  A
C945        C946   1.414       .  A
C945        N950   1.437       .  S
C946        C947   1.402       .  A
C946        H951   1.083       .  S
C947        C952   1.485       .  S
C947        C948   1.406       .  A
C948        C949   1.403       .  A
C948        N953   1.439       .  S
C949        H954   1.083       .  S
N950        H970   1.045       .  S
N950        H971   1.046       .  S
C952        C955   1.401       .  A
C952        C959   1.409       .  A
N953        H968   1.046       .  S
N953        H969   1.045       .  S
C955        C956   1.406       .  A
C955        H960   1.084       .  S
C956        C957   1.414       .  A
C956        N961   1.432       .  S
C957        C958   1.409       .  A
C958        C959   1.409       .  A
C958        H962   1.083       .  S
C959        N963   1.438       .  S
N961        H964   1.046   1_565  S
N961        H965   1.046       .  S
N963        H966   1.046       .  S
N963        H967   1.045       .  S
C972        C973   1.413       .  A
C972        C977   1.403       .  A
C973        C974   1.412       .  A
C973        N978   1.437       .  S
C974        C975   1.404       .  A
C974        H979   1.083       .  S
C975        C980   1.480       .  S
C975        C976   1.407       .  A
C976        C977   1.399       .  A
C976        N981   1.438       .  S
C977        H982   1.084       .  S
N978        H998   1.046       .  S
N978        H999   1.046       .  S
C980        C983   1.401       .  A
C980        C987   1.410       .  A
N981        H996   1.046       .  S
N981        H997   1.046       .  S
C983        C984   1.404       .  A
C983        H988   1.084       .  S
C984        C985   1.412       .  A
C984        N989   1.438       .  S
C985        C986   1.403       .  A
C986        C987   1.409       .  A
C986        H990   1.084       .  S
C987        N991   1.437       .  S
N989        H992   1.046       .  S
N989        H993   1.046       .  S
N991        H994   1.046       .  S
N991        H995   1.046       .  S
C1000      N1005   1.364       .  A
C1000      C1915   1.486       .  S
N1001      C1002   1.356       .  A
C1002      N1003   1.354   1_556  A
C1002      C1984   1.477       .  S
C1004      N1005   1.360       .  A
C1004      C1943   1.487       .  S
C1006      N1007   1.361       .  A
C1006      C1831   1.484       .  S
N1007      C1008   1.359       .  A
C1008      C1872   1.479       .  S
N1009      C1010   1.358       .  A
C1010      N1011   1.356       .  A
C1010      C1887   1.490       .  S
O1012      C1020   1.265   1_545  A
O1012     Co1032   1.882       .  S
O1013      C1021   1.265       .  A
O1013     Co1033   1.967       .  S
O1014      C1022   1.265       .  A
O1014     Co1034   2.003   1_565  S
O1015      C1023   1.281       .  A
O1015     Co1035   2.031       .  S
O1016      C1022   1.262   1_545  A
O1016     Co1033   1.982       .  S
O1017      C1023   1.270       .  A
O1017     Co1032   1.968       .  S
O1018      C1021   1.273       .  A
O1018     Co1035   2.019       .  S
O1019      C1020   1.300       .  A
O1019     Co1034   2.118   1_565  S
C1020      C1971   1.491       .  S
C1021      C1719   1.491       .  S
C1022      C1956   1.488       .  S
C1023      C1760   1.495       .  S
O1024      C1037   1.262       .  A
O1024     Co1032   2.012       .  S
O1025      C1038   1.276       .  A
O1025     Co1033   2.015       .  S
O1026      C1039   1.266       .  A
O1026     Co1034   1.900   1_565  S
O1027      C1040   1.257       .  A
O1027     Co1035   1.953       .  S
O1028      C1040   1.275       .  A
O1028     Co1033   2.038       .  S
O1029      C1039   1.294   1_545  A
O1029     Co1032   2.102       .  S
O1030      C1037   1.252       .  A
O1030     Co1035   1.961       .  S
O1031      C1038   1.269       .  A
O1031     Co1034   1.976       .  S
Co1032     O1036   1.993       .  S
Co1033     O1036   2.030       .  S
Co1034     O1036   2.014       .  S
Co1035     O1036   2.015       .  S
C1037      C1816   1.483       .  S
C1038      C1859   1.485   1_545  S
C1039      C1900   1.471       .  S
C1040      C1788   1.484       .  S
C1041      N1042   1.363       .  A
C1041      C1704   1.497       .  S
N1042      C1043   1.358       .  A
C1043      N1044   1.352       .  A
C1043      C1775   1.474       .  S
C1045      N1046   1.361       .  A
C1045      C1803   1.484       .  S
C1047      N1048   1.366       .  A
C1047      C1663   1.487   1_556  S
N1048      C1049   1.362       .  A
C1049      N1050   1.356       .  A
C1049      C1747   1.497       .  S
C1051      N1052   1.359       .  A
C1051      C1732   1.492       .  S
O1053      C1061   1.280       .  A
O1053     Co1073   2.020       .  S
O1054      C1062   1.266       .  A
O1054     Co1074   2.019       .  S
O1055      C1063   1.266       .  A
O1055     Co1075   1.893       .  S
O1056      C1064   1.257       .  A
O1056     Co1076   1.953       .  S
O1057      C1063   1.294       .  A
O1057     Co1074   2.103       .  S
O1058      C1064   1.274       .  A
O1058     Co1073   2.029       .  S
O1059      C1062   1.257       .  A
O1059     Co1076   1.971       .  S
O1060      C1061   1.269       .  A
O1060     Co1075   1.969       .  S
C1061      C1648   1.487       .  S
C1062      C1452   1.479       .  S
C1063      C1607   1.486       .  S
C1064      C1480   1.481       .  S
O1065      C1078   1.265       .  A
O1065     Co1073   1.970       .  S
O1066      C1079   1.265       .  A
O1066     Co1074   1.873       .  S
O1067      C1080   1.265       .  A
O1067     Co1075   2.012       .  S
O1068      C1081   1.277       .  A
O1068     Co1076   2.019       .  S
O1069      C1081   1.264       .  A
O1069     Co1074   1.962       .  S
O1070      C1080   1.261       .  A
O1070     Co1073   1.980       .  S
O1071      C1078   1.276       .  A
O1071     Co1076   2.030       .  S
O1072      C1079   1.301       .  A
O1072     Co1075   2.122       .  S
Co1073     O1077   2.022       .  S
Co1074     O1077   1.986       .  S
Co1075     O1077   2.004       .  S
Co1076     O1077   2.019       .  S
C1078      C1523   1.490   1_455  S
C1079      C1551   1.476       .  S
C1080      C1592   1.488       .  S
C1081      C1495   1.482       .  S
C1082      N1087   1.361       .  A
C1082      C1411   1.489       .  S
N1083      C1084   1.363       .  A
C1084      N1085   1.352       .  A
C1084      C1579   1.494       .  S
C1086      N1087   1.358       .  A
C1086      C1564   1.480       .  S
C1088      N1093   1.360       .  A
C1088      C1676   1.485       .  S
N1089      C1090   1.362       .  A
C1090      N1091   1.359   1_556  A
C1090      C1536   1.497       .  S
C1092      N1093   1.357       .  A
C1092      C1508   1.483       .  S
C1094      N1099   1.363   1_554  A
C1094      C1383   1.491       .  S
N1095      C1096   1.359       .  A
C1096      C1439   1.473       .  S
N1097      C1098   1.350   1_554  A
C1098      N1099   1.357       .  A
C1098      C1467   1.473       .  S
C1100      N1105   1.364       .  A
C1100      C1844   1.492       .  S
N1101      C1102   1.360       .  A
C1102      C1635   1.485       .  S
N1103      C1104   1.352       .  A
C1104      N1105   1.359       .  A
C1104      C1620   1.477       .  S
O1106      C1114   1.278       .  A
O1106     Co1126   2.020       .  S
O1107      C1115   1.263       .  A
O1107     Co1127   2.007       .  S
O1108      C1116   1.267       .  A
O1108     Co1128   1.897       .  S
O1109      C1117   1.262       .  A
O1109     Co1129   1.964       .  S
O1110      C1116   1.297       .  A
O1110     Co1127   2.113       .  S
O1111      C1117   1.273       .  A
O1111     Co1126   2.021       .  S
O1112      C1115   1.256       .  A
O1112     Co1129   1.967       .  S
O1113      C1114   1.270       .  A
O1113     Co1128   1.978       .  S
C1114      C1355   1.491       .  S
C1115      C1159   1.484       .  S
C1116      C1340   1.482       .  S
C1117      C1200   1.486       .  S
O1118      C1131   1.267       .  A
O1118     Co1126   1.976       .  S
O1119      C1132   1.264       .  A
O1119     Co1127   1.888       .  S
O1120      C1133   1.266       .  A
O1120     Co1128   2.006       .  S
O1121      C1134   1.281       .  A
O1121     Co1129   2.032       .  S
O1122      C1134   1.270       .  A
O1122     Co1127   1.969       .  S
O1123      C1133   1.262       .  A
O1123     Co1126   1.979       .  S
O1124      C1131   1.272       .  A
O1124     Co1129   2.019       .  S
O1125      C1132   1.299       .  A
O1125     Co1128   2.121       .  S
Co1126     O1130   2.024       .  S
Co1127     O1130   1.994       .  S
Co1128     O1130   2.009       .  S
Co1129     O1130   2.023       .  S
C1131      C1256   1.494       .  S
C1132      C1284   1.488       .  S
C1133      C1299   1.487       .  S
C1134      C1215   1.495       .  S
C1135      N1136   1.362       .  A
C1135      C1691   1.479       .  S
N1136      C1137   1.360       .  A
C1137      N1138   1.358       .  A
C1137      C1368   1.487       .  S
C1139      N1140   1.362       .  A
C1139      C1327   1.500       .  S
C1141      N1142   1.362       .  A
C1141      C1424   1.479       .  S
N1142      C1143   1.359       .  A
C1143      N1144   1.352       .  A
C1143      C1187   1.475       .  S
C1145      N1146   1.361       .  A
C1145      C1172   1.484       .  S
C1147      N1148   1.362       .  A
C1147      C1396   1.486       .  S
N1148      C1149   1.359       .  A
C1149      N1150   1.357       .  A
C1149      C1312   1.496       .  S
C1151      N1152   1.363       .  A
C1151      C1271   1.481       .  S
C1153      N1154   1.361       .  A
C1153      C1928   1.477       .  S
N1154      C1155   1.359       .  A
C1155      N1156   1.357       .  A
C1155      C1243   1.486       .  S
C1157      N1158   1.363       .  A
C1157      C1228   1.496       .  S
C1159      C1160   1.412       .  A
C1159      C1164   1.409       .  A
C1160      C1161   1.402       .  A
C1160      N1165   1.432       .  S
C1161      C1162   1.402       .  A
C1161      H1166   1.084       .  S
C1162      C1167   1.478       .  S
C1162      C1163   1.405       .  A
C1163      C1164   1.404       .  A
C1163      N1168   1.438       .  S
C1164      H1169   1.083       .  S
N1165      H1185   1.046       .  S
N1165      H1186   1.046       .  S
C1167      C1170   1.402       .  A
C1167      C1174   1.406       .  A
N1168      H1183   1.046       .  S
N1168      H1184   1.046       .  S
C1170      C1171   1.405       .  A
C1170      H1175   1.084       .  S
C1171      C1172   1.412       .  A
C1171      N1176   1.432       .  S
C1172      C1173   1.408       .  A
C1173      C1174   1.402       .  A
C1173      H1177   1.084       .  S
C1174      N1178   1.438       .  S
N1176      H1179   1.046       .  S
N1176      H1180   1.045       .  S
N1178      H1181   1.046       .  S
N1178      H1182   1.046       .  S
C1187      C1188   1.414       .  A
C1187      C1192   1.402       .  A
C1188      C1189   1.403       .  A
C1188      N1193   1.438       .  S
C1189      C1190   1.398       .  A
C1189      H1194   1.084       .  S
C1190      C1195   1.474       .  S
C1190      C1191   1.409       .  A
C1191      C1192   1.404       .  A
C1191      N1196   1.437       .  S
C1192      H1197   1.084       .  S
N1193      H1213   1.045       .  S
N1193      H1214   1.046       .  S
C1195      C1198   1.399       .  A
C1195      C1202   1.405       .  A
N1196      H1211   1.046       .  S
N1196      H1212   1.046       .  S
C1198      C1199   1.398       .  A
C1198      H1203   1.084       .  S
C1199      C1200   1.414       .  A
C1199      N1204   1.433       .  S
C1200      C1201   1.411       .  A
C1201      C1202   1.407       .  A
C1201      H1205   1.083       .  S
C1202      N1206   1.437       .  S
N1204      H1207   1.046       .  S
N1204      H1208   1.046       .  S
N1206      H1209   1.046       .  S
N1206      H1210   1.046       .  S
C1215      C1216   1.415       .  A
C1215      C1220   1.409       .  A
C1216      C1217   1.404       .  A
C1216      N1221   1.432       .  S
C1217      C1218   1.404       .  A
C1217      H1222   1.083       .  S
C1218      C1223   1.496       .  S
C1218      C1219   1.413       .  A
C1219      C1220   1.409       .  A
C1219      N1224   1.438       .  S
C1220      H1225   1.083       .  S
N1221      H1241   1.046       .  S
N1221      H1242   1.046       .  S
C1223      C1226   1.403       .  A
C1223      C1230   1.413       .  A
N1224      H1239   1.046       .  S
N1224      H1240   1.045       .  S
C1226      C1227   1.403       .  A
C1226      H1231   1.084       .  S
C1227      C1228   1.415       .  A
C1227      N1232   1.433       .  S
C1228      C1229   1.408       .  A
C1229      C1230   1.412       .  A
C1229      H1233   1.083       .  S
C1230      N1234   1.437       .  S
N1232      H1235   1.046       .  S
N1232      H1236   1.046       .  S
N1234      H1237   1.046       .  S
N1234      H1238   1.046       .  S
C1243      C1244   1.415       .  A
C1243      C1248   1.404       .  A
C1244      C1245   1.411       .  A
C1244      N1249   1.438       .  S
C1245      C1246   1.404       .  A
C1245      H1250   1.083       .  S
C1246      C1251   1.489       .  S
C1246      C1247   1.411       .  A
C1247      C1248   1.404       .  A
C1247      N1252   1.439       .  S
C1248      H1253   1.084       .  S
N1249      H1269   1.046       .  S
N1249      H1270   1.046       .  S
C1251      C1254   1.402       .  A
C1251      C1258   1.411       .  A
N1252      H1267   1.046       .  S
N1252      H1268   1.046       .  S
C1254      C1255   1.404       .  A
C1254      H1259   1.084       .  S
C1255      C1256   1.417       .  A
C1255      N1260   1.433       .  S
C1256      C1257   1.408       .  A
C1257      C1258   1.409       .  A
C1257      H1261   1.083       .  S
C1258      N1262   1.438       .  S
N1260      H1263   1.046       .  S
N1260      H1264   1.046       .  S
N1262      H1265   1.046       .  S
N1262      H1266   1.046       .  S
C1271      C1272   1.411       .  A
C1271      C1276   1.404       .  A
C1272      C1273   1.407       .  A
C1272      N1277   1.438       .  S
C1273      C1274   1.403       .  A
C1273      H1278   1.084       .  S
C1274      C1279   1.491       .  S
C1274      C1275   1.412       .  A
C1275      C1276   1.413       .  A
C1275      N1280   1.437       .  S
C1276      H1281   1.084       .  S
N1277      H1298   1.046       .  S
C1279      C1282   1.402       .  A
C1279      C1286   1.412       .  A
N1280      H1295   1.046       .  S
N1280      H1296   1.045       .  S
C1282      C1283   1.406       .  A
C1282      H1287   1.084       .  S
C1283      C1284   1.412       .  A
C1283      N1288   1.433       .  S
C1284      C1285   1.406       .  A
C1285      C1286   1.412       .  A
C1285      H1289   1.084       .  S
C1286      N1290   1.437       .  S
N1288      H1291   1.045       .  S
N1288      H1292   1.045       .  S
N1290      H1293   1.046       .  S
N1290      H1294   1.046       .  S
C1299      C1300   1.415       .  A
C1299      C1304   1.407       .  A
C1300      C1301   1.407       .  A
C1300      N1305   1.438       .  S
C1301      C1302   1.402       .  A
C1301      H1306   1.084       .  S
C1302      C1307   1.483       .  S
C1302      C1303   1.408       .  A
C1303      C1304   1.406       .  A
C1303      N1308   1.438       .  S
C1304      H1309   1.083       .  S
N1305      H1325   1.046       .  S
N1305      H1326   1.046       .  S
C1307      C1310   1.401       .  A
C1307      C1314   1.406       .  A
N1308      H1323   1.046       .  S
N1308      H1324   1.046       .  S
C1310      C1311   1.412       .  A
C1310      H1315   1.084       .  S
C1311      C1312   1.420       .  A
C1311      N1316   1.437       .  S
C1312      C1313   1.409       .  A
C1313      C1314   1.402       .  A
C1313      H1317   1.083       .  S
C1314      N1318   1.439       .  S
N1316      H1319   1.046       .  S
N1316      H1320   1.045       .  S
N1318      H1321   1.046       .  S
N1318      H1322   1.046       .  S
C1327      C1328   1.416       .  A
C1327      C1332   1.410       .  A
C1328      C1329   1.408       .  A
C1328      N1333   1.431       .  S
C1329      C1330   1.404       .  A
C1329      H1334   1.084       .  S
C1330      C1335   1.493       .  S
C1330      C1331   1.410       .  A
C1331      C1332   1.406       .  A
C1331      N1336   1.439       .  S
C1332      H1337   1.083       .  S
N1333      H1353   1.046       .  S
N1333      H1354   1.046       .  S
C1335      C1338   1.405       .  A
C1335      C1342   1.413       .  A
N1336      H1351   1.046       .  S
N1336      H1352   1.046       .  S
C1338      C1339   1.405       .  A
C1338      H1343   1.084       .  S
C1339      C1340   1.410       .  A
C1339      N1344   1.432       .  S
C1340      C1341   1.404       .  A
C1341      C1342   1.408       .  A
C1341      H1345   1.084       .  S
C1342      N1346   1.438       .  S
N1344      H1347   1.045       .  S
N1344      H1348   1.046       .  S
N1346      H1349   1.046       .  S
N1346      H1350   1.046       .  S
C1355      C1356   1.416       .  A
C1355      C1360   1.411       .  A
C1356      C1357   1.398       .  A
C1356      N1361   1.433       .  S
C1357      C1358   1.398       .  A
C1357      H1362   1.085       .  S
C1358      C1363   1.480       .  S
C1358      C1359   1.408       .  A
C1359      C1360   1.412       .  A
C1359      N1364   1.437       .  S
C1360      H1365   1.083       .  S
N1361      H1381   1.046       .  S
N1361      H1382   1.046       .  S
C1363      C1366   1.402       .  A
C1363      C1370   1.406       .  A
N1364      H1379   1.046       .  S
N1364      H1380   1.046       .  S
C1366      C1367   1.411       .  A
C1366      H1371   1.084       .  S
C1367      C1368   1.416       .  A
C1367      N1372   1.437       .  S
C1368      C1369   1.406       .  A
C1369      C1370   1.403       .  A
C1369      H1373   1.084       .  S
C1370      N1374   1.438       .  S
N1372      H1375   1.046       .  S
N1372      H1376   1.045       .  S
N1374      H1377   1.046       .  S
N1374      H1378   1.046       .  S
C1383      C1384   1.413       .  A
C1384      C1385   1.411       .  A
C1384      N1389   1.437       .  S
C1385      H1390   1.083       .  S
C1386      C1391   1.487       .  S
C1386      C1387   1.410       .  A
C1387      C1388   1.409       .  A
C1387      N1392   1.438       .  S
C1388      H1393   1.084       .  S
N1389      H1409   1.046       .  S
N1389      H1410   1.046       .  S
C1391      C1398   1.410       .  A
N1392      H1407   1.046       .  S
N1392      H1408   1.045       .  S
C1394      C1395   1.410       .  A
C1394      H1399   1.084       .  S
C1395      N1400   1.432       .  S
C1396      C1397   1.406       .  A
C1397      C1398   1.410       .  A
C1397      H1401   1.084       .  S
C1398      N1402   1.438       .  S
N1400      H1403   1.046       .  S
N1400      H1404   1.046       .  S
N1402      H1405   1.046       .  S
N1402      H1406   1.045       .  S
C1411      C1412   1.415       .  A
C1412      C1413   1.403       .  A
C1412      N1417   1.432       .  S
C1413      C1414   1.400       .  A
C1413      H1418   1.084       .  S
C1414      C1419   1.481       .  S
C1415      C1416   1.410       .  A
C1415      N1420   1.438       .  S
C1416      H1421   1.083       .  S
N1417      H1437   1.046       .  S
N1417      H1438   1.046       .  S
C1419      C1426   1.410       .  A
N1420      H1435   1.046       .  S
N1420      H1436   1.046       .  S
C1422      C1423   1.407       .  A
C1422      H1427   1.084       .  S
C1423      N1428   1.432       .  S
C1424      C1425   1.405       .  A
C1425      C1426   1.407       .  A
C1425      H1429   1.084       .  S
C1426      N1430   1.437       .  S
N1428      H1431   1.046       .  S
N1428      H1432   1.046       .  S
N1430      H1433   1.046       .  S
N1430      H1434   1.046       .  S
C1439      C1440   1.408       .  A
C1439      C1444   1.402       .  A
C1440      C1441   1.400       .  A
C1440      N1445   1.433       .  S
C1441      C1442   1.402       .  A
C1441      H1446   1.084   1_655  S
C1442      C1447   1.487       .  S
C1442      C1443   1.415       .  A
C1443      C1444   1.409       .  A
C1443      N1448   1.437       .  S
C1444      H1449   1.084       .  S
N1445      H1465   1.046       .  S
N1445      H1466   1.046       .  S
C1447      C1450   1.402   1_655  A
C1447      C1454   1.411       .  A
N1448      H1463   1.045       .  S
N1448      H1464   1.046       .  S
C1450      C1451   1.405       .  A
C1450      H1455   1.084       .  S
C1451      C1452   1.414       .  A
C1451      N1456   1.438       .  S
C1452      C1453   1.403       .  A
C1453      C1454   1.404   1_455  A
C1453      H1457   1.084   1_455  S
C1454      N1458   1.432       .  S
N1456      H1459   1.046       .  S
N1456      H1460   1.046       .  S
N1458      H1461   1.045       .  S
N1458      H1462   1.046       .  S
C1467      C1468   1.411       .  A
C1467      C1472   1.403       .  A
C1468      C1469   1.408       .  A
C1468      N1473   1.437       .  S
C1469      C1470   1.403       .  A
C1469      H1474   1.084       .  S
C1470      C1475   1.477       .  S
C1470      C1471   1.408       .  A
C1471      C1472   1.401       .  A
C1471      N1476   1.439   1_655  S
C1472      H1477   1.084       .  S
N1473      H1493   1.045       .  S
N1473      H1494   1.046       .  S
C1475      C1478   1.399       .  A
C1475      C1482   1.410       .  A
N1476      H1491   1.046       .  S
N1476      H1492   1.046       .  S
C1478      C1479   1.400   1_655  A
C1478      H1483   1.084       .  S
C1479      C1480   1.414       .  A
C1479      N1484   1.432       .  S
C1480      C1481   1.405       .  A
C1481      C1482   1.405   1_455  A
C1481      H1485   1.083       .  S
C1482      N1486   1.438       .  S
N1484      H1487   1.046       .  S
N1484      H1488   1.046       .  S
N1486      H1489   1.046       .  S
N1486      H1490   1.046       .  S
C1495      C1496   1.418       .  A
C1495      C1500   1.406   1_455  A
C1496      C1497   1.401   1_455  A
C1496      N1501   1.432       .  S
C1497      C1498   1.402       .  A
C1497      H1502   1.084   1_655  S
C1498      C1503   1.481       .  S
C1498      C1499   1.410       .  A
C1499      C1500   1.400       .  A
C1499      N1504   1.439       .  S
C1500      H1505   1.084       .  S
N1501      H1521   1.046       .  S
N1501      H1522   1.044       .  S
C1503      C1506   1.401       .  A
C1503      C1510   1.407       .  A
N1504      H1519   1.046       .  S
N1504      H1520   1.046       .  S
C1506      C1507   1.402       .  A
C1506      H1511   1.084       .  S
C1507      C1508   1.413       .  A
C1507      N1512   1.431       .  S
C1508      C1509   1.406       .  A
C1509      C1510   1.402       .  A
C1509      H1513   1.084       .  S
C1510      N1514   1.433   1_655  S
N1512      H1515   1.046       .  S
N1512      H1516   1.045       .  S
N1514      H1517   1.045       .  S
N1514      H1518   1.046       .  S
C1523      C1524   1.417       .  A
C1523      C1528   1.409   1_655  A
C1524      C1525   1.405       .  A
C1524      N1529   1.438       .  S
C1525      C1526   1.400       .  A
C1525      H1530   1.084       .  S
C1526      C1531   1.485       .  S
C1526      C1527   1.409       .  A
C1527      C1528   1.411   1_655  A
C1527      N1532   1.437   1_655  S
C1528      H1533   1.084       .  S
N1529      H1549   1.045       .  S
N1529      H1550   1.046       .  S
C1531      C1534   1.402       .  A
C1531      C1538   1.408       .  A
N1532      H1547   1.046       .  S
N1532      H1548   1.046       .  S
C1534      C1535   1.410       .  A
C1534      H1539   1.084       .  S
C1535      C1536   1.417       .  A
C1535      N1540   1.432       .  S
C1536      C1537   1.409       .  A
C1537      C1538   1.404       .  A
C1537      H1541   1.083       .  S
C1538      N1542   1.438       .  S
N1540      H1543   1.046       .  S
N1540      H1544   1.046       .  S
N1542      H1545   1.046       .  S
N1542      H1546   1.046   1_655  S
C1551      C1552   1.411       .  A
C1551      C1556   1.404       .  A
C1552      C1553   1.401       .  A
C1552      N1557   1.433       .  S
C1553      C1554   1.400       .  A
C1553      H1558   1.084       .  S
C1554      C1559   1.480       .  S
C1554      C1555   1.410       .  A
C1555      C1556   1.408       .  A
C1555      N1560   1.437       .  S
C1556      H1561   1.084       .  S
N1557      H1577   1.046       .  S
N1557      H1578   1.046       .  S
C1559      C1562   1.401       .  A
C1559      C1566   1.408       .  A
N1560      H1575   1.046       .  S
N1560      H1576   1.046       .  S
C1562      C1563   1.404       .  A
C1562      H1567   1.084       .  S
C1563      C1564   1.413       .  A
C1563      N1568   1.438       .  S
C1564      C1565   1.406       .  A
C1565      C1566   1.408       .  A
C1565      H1569   1.084       .  S
C1566      N1570   1.437       .  S
N1568      H1571   1.046       .  S
N1568      H1572   1.046       .  S
N1570      H1573   1.046       .  S
N1570      H1574   1.046       .  S
C1579      C1580   1.416       .  A
C1579      C1584   1.410       .  A
C1580      C1581   1.414       .  A
C1580      N1585   1.437       .  S
C1581      C1582   1.404       .  A
C1581      H1586   1.083       .  S
C1582      C1587   1.483       .  S
C1582      C1583   1.406       .  A
C1583      C1584   1.400       .  A
C1583      N1588   1.439       .  S
C1584      H1589   1.083       .  S
N1585      H1605   1.046       .  S
N1585      H1606   1.046       .  S
C1587      C1590   1.400       .  A
C1587      C1594   1.411       .  A
N1588      H1603   1.046       .  S
N1588      H1604   1.045       .  S
C1590      C1591   1.403       .  A
C1590      H1595   1.084       .  S
C1591      C1592   1.411       .  A
C1591      N1596   1.432       .  S
C1592      C1593   1.409       .  A
C1593      C1594   1.411       .  A
C1593      H1597   1.084       .  S
C1594      N1598   1.438       .  S
N1596      H1599   1.046       .  S
N1596      H1600   1.046       .  S
N1598      H1601   1.046       .  S
N1598      H1602   1.045       .  S
C1607      C1608   1.417       .  A
C1607      C1612   1.408       .  A
C1608      C1609   1.406       .  A
C1608      N1613   1.438       .  S
C1609      C1610   1.401       .  A
C1609      H1614   1.084       .  S
C1610      C1615   1.480       .  S
C1610      C1611   1.408       .  A
C1611      C1612   1.402       .  A
C1611      N1616   1.438       .  S
C1612      H1617   1.083       .  S
N1613      H1633   1.046       .  S
N1613      H1634   1.046       .  S
C1615      C1618   1.400       .  A
C1615      C1622   1.411       .  A
N1616      H1631   1.046       .  S
N1616      H1632   1.046       .  S
C1618      C1619   1.400       .  A
C1618      H1623   1.084       .  S
C1619      C1620   1.413       .  A
C1619      N1624   1.434       .  S
C1620      C1621   1.402       .  A
C1621      C1622   1.407       .  A
C1621      H1625   1.084       .  S
C1622      N1626   1.437       .  S
N1624      H1627   1.046       .  S
N1624      H1628   1.046       .  S
N1626      H1629   1.045       .  S
N1626      H1630   1.046       .  S
C1635      C1636   1.415       .  A
C1635      C1640   1.406       .  A
C1636      C1637   1.404       .  A
C1636      N1641   1.437       .  S
C1637      C1638   1.400       .  A
C1637      H1642   1.084       .  S
C1638      C1643   1.476       .  S
C1638      C1639   1.408       .  A
C1639      C1640   1.405       .  A
C1639      N1644   1.438       .  S
C1640      H1645   1.083       .  S
N1641      H1661   1.046       .  S
N1641      H1662   1.046       .  S
C1643      C1646   1.400       .  A
C1643      C1650   1.406       .  A
N1644      H1659   1.046       .  S
N1644      H1660   1.045       .  S
C1646      C1647   1.410       .  A
C1646      H1651   1.083       .  S
C1647      C1648   1.419       .  A
C1647      N1652   1.438       .  S
C1648      C1649   1.406       .  A
C1649      C1650   1.399       .  A
C1649      H1653   1.083       .  S
C1650      N1654   1.439       .  S
N1652      H1655   1.046       .  S
N1652      H1656   1.044       .  S
N1654      H1657   1.046       .  S
N1654      H1658   1.046       .  S
C1663      C1664   1.414   1_554  A
C1664      C1665   1.406       .  A
C1664      N1669   1.438       .  S
C1665      C1666   1.402   1_556  A
C1665      H1670   1.084       .  S
C1666      C1671   1.483       .  S
C1667      C1668   1.406       .  A
C1667      N1672   1.438       .  S
C1668      H1673   1.083       .  S
N1669      H1689   1.046       .  S
N1669      H1690   1.046       .  S
C1671      C1678   1.409   1_554  A
N1672      H1687   1.046       .  S
N1672      H1688   1.046       .  S
C1674      C1675   1.404       .  A
C1674      H1679   1.084       .  S
C1675      C1676   1.414       .  A
C1675      N1680   1.437       .  S
C1677      C1678   1.406       .  A
C1677      H1681   1.084       .  S
C1678      N1682   1.437       .  S
N1680      H1683   1.046       .  S
N1680      H1684   1.046       .  S
N1682      H1685   1.046       .  S
N1682      H1686   1.046       .  S
C1691      C1696   1.402       .  A
C1692      C1693   1.408       .  A
C1692      N1697   1.437       .  S
C1693      C1694   1.402       .  A
C1693      H1698   1.084       .  S
C1694      C1699   1.491       .  S
C1695      C1696   1.405       .  A
C1695      N1700   1.438       .  S
C1696      H1701   1.084       .  S
N1697      H1717   1.046       .  S
N1697      H1718   1.046       .  S
C1699      C1706   1.411       .  A
N1700      H1715   1.046       .  S
N1700      H1716   1.046       .  S
C1702      C1703   1.405       .  A
C1702      H1707   1.084       .  S
C1703      C1704   1.420       .  A
C1703      N1708   1.438       .  S
C1705      C1706   1.408       .  A
C1705      H1709   1.083       .  S
C1706      N1710   1.438       .  S
N1708      H1711   1.046       .  S
N1708      H1712   1.046       .  S
N1710      H1713   1.046       .  S
N1710      H1714   1.046       .  S
C1719      C1720   1.420       .  A
C1719      C1724   1.409       .  A
C1720      C1721   1.406       .  A
C1720      N1725   1.438       .  S
C1721      C1722   1.400       .  A
C1721      H1726   1.084       .  S
C1722      C1727   1.481       .  S
C1722      C1723   1.407       .  A
C1723      C1724   1.407       .  A
C1723      N1728   1.438       .  S
C1724      H1729   1.083       .  S
N1725      H1745   1.045       .  S
N1725      H1746   1.046       .  S
C1727      C1730   1.402       .  A
C1727      C1734   1.406       .  A
N1728      H1743   1.046       .  S
N1728      H1744   1.046       .  S
C1730      C1731   1.412       .  A
C1730      H1735   1.084       .  S
C1731      C1732   1.417       .  A
C1731      N1736   1.437       .  S
C1732      C1733   1.409       .  A
C1733      C1734   1.401       .  A
C1733      H1737   1.083       .  S
C1734      N1738   1.439       .  S
N1736      H1739   1.046       .  S
N1736      H1740   1.046       .  S
N1738      H1741   1.046       .  S
N1738      H1742   1.046       .  S
C1747      C1748   1.416       .  A
C1747      C1752   1.410       .  A
C1748      C1749   1.411       .  A
C1748      N1753   1.432       .  S
C1749      C1750   1.403       .  A
C1749      H1754   1.084       .  S
C1750      C1755   1.483       .  S
C1750      C1751   1.406       .  A
C1751      C1752   1.401       .  A
C1751      N1756   1.439       .  S
C1752      H1757   1.083       .  S
N1753      H1773   1.046       .  S
N1753      H1774   1.046       .  S
C1755      C1758   1.401       .  A
C1755      C1762   1.407       .  A
N1756      H1771   1.046       .  S
N1756      H1772   1.046       .  S
C1758      C1759   1.408       .  A
C1758      H1763   1.084       .  S
C1759      C1760   1.418       .  A
C1759      N1764   1.438       .  S
C1760      C1761   1.410       .  A
C1761      C1762   1.407       .  A
C1761      H1765   1.083       .  S
C1762      N1766   1.438       .  S
N1764      H1767   1.046       .  S
N1764      H1768   1.046       .  S
N1766      H1769   1.046       .  S
N1766      H1770   1.046       .  S
C1775      C1776   1.410       .  A
C1775      C1780   1.402       .  A
C1776      C1777   1.405       .  A
C1776      N1781   1.437       .  S
C1777      C1778   1.403       .  A
C1777      H1782   1.084       .  S
C1778      C1783   1.485       .  S
C1778      C1779   1.412       .  A
C1779      C1780   1.406       .  A
C1779      N1784   1.437       .  S
C1780      H1785   1.084       .  S
N1781      H1801   1.046       .  S
N1781      H1802   1.046       .  S
C1783      C1786   1.404       .  A
C1783      C1790   1.408       .  A
N1784      H1799   1.046       .  S
N1784      H1800   1.046       .  S
C1786      C1787   1.406       .  A
C1786      H1791   1.084       .  S
C1787      C1788   1.412       .  A
C1787      N1792   1.438       .  S
C1788      C1789   1.408       .  A
C1789      C1790   1.405       .  A
C1789      H1793   1.084       .  S
C1790      N1794   1.438       .  S
N1792      H1795   1.046       .  S
N1792      H1796   1.045       .  S
N1794      H1797   1.046       .  S
N1794      H1798   1.046       .  S
C1803      C1804   1.414       .  A
C1803      C1808   1.408       .  A
C1804      C1805   1.410       .  A
C1804      N1809   1.437       .  S
C1805      C1806   1.405       .  A
C1805      H1810   1.084       .  S
C1806      C1811   1.482       .  S
C1806      C1807   1.406       .  A
C1807      C1808   1.399       .  A
C1807      N1812   1.439       .  S
C1808      H1813   1.084       .  S
N1809      H1829   1.045       .  S
N1809      H1830   1.046       .  S
C1811      C1814   1.405       .  A
C1811      C1818   1.406       .  A
N1812      H1827   1.046       .  S
N1812      H1828   1.046       .  S
C1814      C1815   1.401       .  A
C1814      H1819   1.084       .  S
C1815      C1816   1.409       .  A
C1815      N1820   1.432       .  S
C1816      C1817   1.411       .  A
C1817      C1818   1.404       .  A
C1817      H1821   1.083       .  S
C1818      N1822   1.438       .  S
N1820      H1823   1.046       .  S
N1820      H1824   1.046       .  S
N1822      H1825   1.046       .  S
N1822      H1826   1.046       .  S
C1831      C1832   1.414       .  A
C1832      C1833   1.406       .  A
C1832      N1837   1.438       .  S
C1833      H1838   1.084       .  S
C1834      C1839   1.482       .  S
C1834      C1835   1.407       .  A
C1835      C1836   1.405       .  A
C1835      N1840   1.438       .  S
C1836      H1841   1.083       .  S
N1837      H1857   1.046       .  S
N1837      H1858   1.046       .  S
C1839      C1842   1.402       .  A
N1840      H1855   1.046       .  S
N1840      H1856   1.046       .  S
C1842      C1843   1.407       .  A
C1842      H1847   1.084       .  S
C1843      N1848   1.438       .  S
C1844      C1845   1.408       .  A
C1845      C1846   1.404       .  A
C1845      H1849   1.083       .  S
C1846      N1850   1.438       .  S
N1848      H1851   1.046       .  S
N1848      H1852   1.046       .  S
N1850      H1853   1.046       .  S
N1850      H1854   1.046       .  S
C1859      C1860   1.413   1_565  A
C1859      C1864   1.408       .  A
C1860      C1861   1.398   1_545  A
C1860      N1865   1.433       .  S
C1861      C1862   1.401       .  A
C1861      H1866   1.084       .  S
C1862      C1867   1.485       .  S
C1862      C1863   1.411       .  A
C1863      C1864   1.409       .  A
C1863      N1868   1.437       .  S
C1864      H1869   1.084       .  S
N1865      H1885   1.045       .  S
N1865      H1886   1.045       .  S
C1867      C1870   1.404       .  A
C1867      C1874   1.412       .  A
N1868      H1883   1.046       .  S
N1868      H1884   1.046       .  S
C1870      C1871   1.403       .  A
C1870      H1875   1.084       .  S
C1871      C1872   1.409       .  A
C1871      N1876   1.432       .  S
C1872      C1873   1.404       .  A
C1873      C1874   1.405       .  A
C1873      H1877   1.084       .  S
C1874      N1878   1.438   1_565  S
N1876      H1879   1.046       .  S
N1876      H1880   1.046       .  S
N1878      H1881   1.046       .  S
N1878      H1882   1.046       .  S
C1887      C1888   1.417       .  A
C1887      C1892   1.407       .  A
C1888      C1889   1.405       .  A
C1888      N1893   1.432       .  S
C1889      C1890   1.401       .  A
C1889      H1894   1.084       .  S
C1890      C1895   1.482       .  S
C1890      C1891   1.410       .  A
C1891      C1892   1.402       .  A
C1891      N1896   1.439       .  S
C1892      H1897   1.083       .  S
N1893      H1913   1.046       .  S
N1893      H1914   1.046       .  S
C1895      C1898   1.403       .  A
C1895      C1902   1.413       .  A
N1896      H1911   1.046   1_565  S
N1896      H1912   1.046       .  S
C1898      C1899   1.403       .  A
C1898      H1903   1.084       .  S
C1899      C1900   1.410       .  A
C1899      N1904   1.438   1_565  S
C1900      C1901   1.402       .  A
C1901      C1902   1.405       .  A
C1901      H1905   1.084       .  S
C1902      N1906   1.438       .  S
N1904      H1907   1.046       .  S
N1904      H1908   1.046       .  S
N1906      H1909   1.046       .  S
N1906      H1910   1.046       .  S
C1915      C1916   1.416       .  A
C1916      C1917   1.407       .  A
C1916      N1921   1.438       .  S
C1917      H1922   1.084       .  S
C1918      C1923   1.485       .  S
C1918      C1919   1.409       .  A
C1919      C1920   1.408       .  A
C1919      N1924   1.438       .  S
C1920      H1925   1.084       .  S
N1921      H1941   1.046       .  S
N1921      H1942   1.046       .  S
C1923      C1930   1.412       .  A
N1924      H1939   1.046       .  S
N1924      H1940   1.044       .  S
C1926      C1927   1.406       .  A
C1926      H1931   1.084       .  S
C1927      C1928   1.411       .  A
C1927      N1932   1.438       .  S
C1929      C1930   1.410       .  A
C1929      H1933   1.084       .  S
C1930      N1934   1.438       .  S
N1932      H1935   1.046       .  S
N1932      H1936   1.046       .  S
N1934      H1937   1.046       .  S
N1934      H1938   1.044       .  S
C1943      C1944   1.415       .  A
C1943      C1948   1.405       .  A
C1944      C1945   1.412       .  A
C1944      N1949   1.437       .  S
C1945      C1946   1.405       .  A
C1945      H1950   1.083       .  S
C1946      C1951   1.489       .  S
C1946      C1947   1.410       .  A
C1947      C1948   1.400       .  A
C1947      N1952   1.439       .  S
C1948      H1953   1.084       .  S
N1949      H1969   1.046       .  S
N1949      H1970   1.046       .  S
C1951      C1954   1.404       .  A
C1951      C1958   1.411       .  A
N1952      H1967   1.046       .  S
N1952      H1968   1.046       .  S
C1954      C1955   1.405       .  A
C1954      H1959   1.084       .  S
C1955      C1956   1.413       .  A
C1955      N1960   1.437       .  S
C1956      C1957   1.408       .  A
C1957      C1958   1.408       .  A
C1957      H1961   1.083       .  S
C1958      N1962   1.438       .  S
N1960      H1963   1.046       .  S
N1960      H1964   1.045       .  S
N1962      H1965   1.046       .  S
N1962      H1966   1.046       .  S
C1971      C1972   1.416       .  A
C1971      C1976   1.407       .  A
C1972      C1973   1.414       .  A
C1972      N1977   1.437       .  S
C1973      C1974   1.405       .  A
C1973      H1978   1.083       .  S
C1974      C1979   1.489       .  S
C1974      C1975   1.409       .  A
C1975      C1976   1.401       .  A
C1975      N1980   1.439       .  S
C1976      H1981   1.083       .  S
N1977      H1997   1.046       .  S
N1977      H1998   1.046       .  S
C1979      C1982   1.403       .  A
C1979      C1986   1.413       .  A
N1980      H1995   1.046       .  S
N1980      H1996   1.046       .  S
C1982      C1983   1.403       .  A
C1982      H1987   1.084       .  S
C1983      C1984   1.409       .  A
C1983      N1988   1.438       .  S
C1984      C1985   1.404       .  A
C1985      C1986   1.411       .  A
C1985      H1989   1.084       .  S
C1986      N1990   1.437       .  S
N1988      H1991   1.046       .  S
N1988      H1992   1.046       .  S
N1990      H1993   1.046       .  S
N1990      H1994   1.046       .  S
