geometry optimzed in LAMMPS
_audit_creation_date              2020-12-01 
_audit_creation_method            'lammps2cif' 
_symmetry_space_group_name_H-M    'P1' 
_symmetry_Int_Tables_number       1 
_symmetry_cell_setting            triclinic 
loop_ 
_symmetry_equiv_pos_as_xyz 
  x,y,z 
_cell_length_a                    30.73964571 
_cell_length_b                    32.2492202653272 
_cell_length_c                    29.47001189681168 
_cell_angle_alpha                 90.2404005757396 
_cell_angle_beta                  89.7460997612787 
_cell_angle_gamma                 118.47776181870962 
loop_ 
_atom_site_label 
_atom_site_type_symbol 
_atom_site_fract_x 
_atom_site_fract_y 
_atom_site_fract_z 
_atom_site_charge 
Fe1        Fe  0.19625696  0.40454983  0.25021168     1.65800
Fe2        Fe  0.19910024  0.30007856  0.24775627     1.73200
Fe3        Fe  0.08832292  0.30081638  0.25295536     1.54400
O4          O  0.08477008  0.33914541  0.30778264    -0.80700
O5          O  0.14994553  0.24935509  0.20376051    -0.79000
O6          O  0.15035006  0.40982106  0.29851167    -0.83200
O7          O  0.15284271  0.40904235  0.19889204    -0.78100
O8          O  0.08658214  0.25114134  0.29782139    -0.79800
O9          O  0.23999467  0.33721237  0.19186888    -0.82600
C10         C  0.10675655  0.38559277  0.19090307     0.98200
C11         C  0.10964814  0.38255751  0.31785787     1.05600
O12         O  0.16125374  0.33521690  0.25033305    -1.11600
O13         O  0.25483718  0.34610261  0.29037500    -0.74000
O14         O  0.24388617  0.40884394  0.30182371    -0.77500
O15         O  0.07937030  0.34597886  0.20924093    -0.78200
C16         C  0.26676805  0.38555777  0.30916977     0.97100
O17         O  0.24661619  0.40851194  0.20144498    -0.76100
O18         O  0.16229024  0.25919442  0.30371074    -0.81300
C19         C  0.10846798  0.23892700  0.18587621     0.99700
C20         C  0.11716600  0.24036419  0.31602776     1.05600
O21         O  0.08316122  0.25874138  0.19799808    -0.77000
C22         C  0.25857732  0.38050763  0.18126217     1.03900
C23         C  0.01909959  0.06115277  0.08938157     0.87500
C24         C  0.04278112  0.03377275  0.11157306    -0.52800
C25         C  0.02272325  0.48783539  0.09863174     0.10400
C26         C  0.47943928  0.47242407  0.06493895     0.21300
C27         C  0.02176748  0.05376318  0.03824166    -0.53500
C28         C  0.50110304  0.50736880  0.02476475     0.10500
C29         C  0.46409889  0.03151849  0.10195090    -0.53000
C30         C  0.44241230  0.48537685  0.08835039     0.11100
H31         H  0.07244735  0.04900128  0.13630268     0.15600
H32         H  0.46334710  0.43492234  0.05539199     0.01300
H33         H  0.03895151  0.08352780  0.01551214     0.15900
H34         H  0.44461217  0.04441637  0.12364005     0.15700
C35         C  0.02615076  0.06349167  0.41260349     0.87500
C36         C  0.47244775  0.03588640  0.39570560    -0.52800
C37         C  0.44892007  0.48952042  0.40737767     0.10400
C38         C  0.48136927  0.47418371  0.43478744     0.21300
C39         C  0.02343150  0.05479243  0.46396983    -0.53500
C40         C  0.50038595  0.50800313  0.47614448     0.10500
C41         C  0.05007710  0.03481191  0.39291925    -0.53000
C42         C  0.02782567  0.48854071  0.40552064     0.11100
H43         H  0.45549367  0.05021194  0.37279545     0.15600
H44         H  0.46190200  0.43620503  0.44285330     0.01300
H45         H  0.03980208  0.08375755  0.48785392     0.15900
H46         H  0.08113081  0.04923932  0.36955218     0.15700
Fe47       Fe  0.30419475  0.09567373  0.75314441     1.65800
Fe48       Fe  0.30168763  0.20008129  0.74952476     1.73200
Fe49       Fe  0.41207557  0.19845964  0.74678708     1.54400
O50         O  0.42017599  0.15336670  0.79115754    -0.80700
O51         O  0.33993620  0.23984877  0.69360727    -0.79000
O52         O  0.34563937  0.09438751  0.80782510    -0.83200
O53         O  0.35266134  0.08772963  0.70980936    -0.78100
O54         O  0.41712855  0.24169295  0.80088134    -0.79800
O55         O  0.24810008  0.15316728  0.70567918    -0.82600
C56         C  0.39243941  0.11406557  0.68871615     0.98200
C57         C  0.39234570  0.11598176  0.81275408     1.05600
O58         O  0.33925836  0.16477360  0.74983807    -1.11600
O59         O  0.25830053  0.16450744  0.80523306    -0.74000
O60         O  0.25155445  0.09311468  0.79805492    -0.77500
O61         O  0.41464146  0.15865077  0.69250924    -0.78200
C62         C  0.23901447  0.12137442  0.81659484     0.97100
O63         O  0.25903883  0.08993836  0.69869813    -0.76100
O64         O  0.35036927  0.25124054  0.79362437    -0.81300
C65         C  0.38521803  0.25849991  0.68205193     0.99700
C66         C  0.39180513  0.26192314  0.81192734     1.05600
O67         O  0.41535232  0.24792942  0.70127616    -0.77000
C68         C  0.23691226  0.11330236  0.68799650     1.03900
C69         C  0.47906066  0.43936741  0.91057865     0.87500
C70         C  0.03333680  0.46975764  0.89595511    -0.52800
C71         C  0.05501081  0.01570170  0.91000017     0.10400
C72         C  0.01891875  0.02785943  0.93598479     0.21300
C73         C  0.47880931  0.44626056  0.96219986    -0.53500
C74         C  0.99940266  0.99260555  0.97607063     0.10500
C75         C  0.45383019  0.46652754  0.89084425    -0.53000
C76         C  0.47406342  0.01224489  0.90445034     0.11100
H77         H  0.05238612  0.45745207  0.87301614     0.15600
H78         H  0.03537292  0.06545817  0.94536814     0.01300
H79         H  0.46294723  0.41640056  0.98492732     0.15900
H80         H  0.42379636  0.45176574  0.86647160     0.15700
C81         C  0.47729870  0.43496978  0.58616891     0.87500
C82         C  0.45463620  0.46266624  0.60986423    -0.52800
C83         C  0.47611789  0.00931439  0.59915826     0.10400
C84         C  0.01956522  0.02477583  0.56565799     0.21300
C85         C  0.47577870  0.44452706  0.53561101    -0.53500
C86         C  0.99768239  0.99144768  0.52411075     0.10500
C87         C  0.03226959  0.46274493  0.59945682    -0.53000
C88         C  0.05478468  0.00953216  0.58865542     0.11100
H89         H  0.42452632  0.44694798  0.63420110     0.15600
H90         H  0.03764285  0.06295981  0.55819265     0.01300
H91         H  0.45831220  0.41564988  0.51174492     0.15900
H92         H  0.05091679  0.44832843  0.62011733     0.15700
C93         C  0.38224710  0.31951359  0.86380935     0.24600
C94         C  0.41214383  0.30117888  0.84575664    -0.23500
C95         C  0.46238944  0.32293132  0.85834958     0.19500
C96         C  0.48318325  0.36479465  0.88368537     0.24500
C97         C  0.45490973  0.38742343  0.89516903    -0.23500
C98         C  0.40318460  0.36146825  0.88896382     0.19400
F99         F  0.37272519  0.37742411  0.90590324    -0.13400
F100        F  0.33272839  0.29769814  0.85610427    -0.15800
F101        F  0.03086670  0.38243034  0.89728761    -0.15800
F102        F  0.49229903  0.30500183  0.84467120    -0.13400
C103        C  0.12168026  0.09544610  0.88165535     0.24600
C104        C  0.10737968  0.04942643  0.89727290    -0.23500
C105        C  0.14247645  0.03312290  0.89544365     0.19500
C106        C  0.18723660  0.05865345  0.87246270     0.24500
C107        C  0.19839250  0.10145008  0.85080973    -0.23500
C108        C  0.16649756  0.12095896  0.85798358     0.19400
F109        F  0.17673194  0.16307691  0.83934208    -0.13400
F110        F  0.09154254  0.11501343  0.88678867    -0.15800
F111        F  0.21869778  0.04018343  0.86967748    -0.15800
F112        F  0.13265396  0.49127181  0.91453174    -0.13400
C113        C  0.48104549  0.07252947  0.84888156     0.24600
C114        C  0.45649692  0.04398091  0.88604815    -0.23500
C115        C  0.41181156  0.04117563  0.90126989     0.19500
C116        C  0.39138735  0.06605743  0.87875134     0.24500
C117        C  0.41615934  0.09494890  0.84142518    -0.23500
C118        C  0.46210888  0.09905972  0.82774720     0.19400
F119        F  0.48685025  0.12562550  0.79129904    -0.13400
F120        F  0.02097358  0.07144547  0.83036552    -0.15800
F121        F  0.34705313  0.06115003  0.89277137    -0.15800
F122        F  0.38692586  0.01263591  0.93656178    -0.13400
C123        C  0.47679654  0.35714127  0.60728670     0.24600
C124        C  0.45077366  0.38239824  0.59871892    -0.23500
C125        C  0.39902279  0.35856068  0.60581865     0.19500
C126        C  0.37667622  0.31673119  0.63087997     0.24500
C127        C  0.40500508  0.29611102  0.64684307    -0.23500
C128        C  0.45434038  0.31478539  0.63147935     0.19400
F129        F  0.48166670  0.29298453  0.64098102    -0.13400
F130        F  0.02375807  0.37277829  0.59204928    -0.15800
F131        F  0.32794319  0.29812297  0.64151284    -0.15800
F132        F  0.37026933  0.37706277  0.59072370    -0.13400
C133        C  0.18699235  0.05362666  0.62787138     0.24600
C134        C  0.19455450  0.09219539  0.65558532    -0.23500
C135        C  0.15849957  0.10757870  0.65508036     0.19500
C136        C  0.11462298  0.08293186  0.63031049     0.24500
C137        C  0.10549463  0.04217180  0.60569494    -0.23500
C138        C  0.14302566  0.02896031  0.60328605     0.19400
F139        F  0.13635013  0.49091628  0.57827536    -0.13400
F140        F  0.22145172  0.03869981  0.62554951    -0.15800
F141        F  0.07948307  0.09688948  0.63364912    -0.15800
F142        F  0.16378866  0.14451926  0.68113424    -0.13400
C143        C  0.45101798  0.03699892  0.66841987     0.24600
C144        C  0.45999904  0.04106613  0.62142636    -0.23500
C145        C  0.44919981  0.07206513  0.59622898     0.19500
C146        C  0.42810916  0.09732813  0.61777229     0.24500
C147        C  0.41662039  0.09070310  0.66428013    -0.23500
C148        C  0.42852104  0.06058606  0.68927436     0.19400
F149        F  0.41809289  0.05381162  0.73429869    -0.13400
F150        F  0.46362167  0.50962811  0.69431354    -0.15800
F151        F  0.41667907  0.12618857  0.59301691    -0.15800
F152        F  0.45663909  0.07599602  0.55066482    -0.13400
C153        C  0.01705984  0.41032363  0.37673088     0.24600
C154        C  0.04811491  0.45663270  0.39186951    -0.23500
C155        C  0.09970893  0.47386527  0.39096879     0.19500
C156        C  0.11987577  0.44785087  0.37032584     0.24500
C157        C  0.08889624  0.40371067  0.35049173    -0.23500
C158        C  0.03726826  0.38403536  0.35630877     0.19400
F159        F  0.00595972  0.34090357  0.33898345    -0.13400
F160        F  0.46711936  0.39150265  0.37841875    -0.15800
F161        F  0.16989998  0.46689471  0.36806455    -0.15800
F162        F  0.13091396  0.01670393  0.40898161    -0.13400
C163        C  0.35614826  0.45037863  0.40514578     0.24600
C164        C  0.40099310  0.45670403  0.38632239    -0.23500
C165        C  0.40077012  0.43753344  0.34343267     0.19500
C166        C  0.35643732  0.41213481  0.31974697     0.24500
C167        C  0.31164828  0.40688047  0.33779340    -0.23500
C168        C  0.31173044  0.42592778  0.38084999     0.19400
F169        F  0.26901291  0.42140166  0.39897946    -0.13400
F170        F  0.35580506  0.96965375  0.44609665    -0.15800
F171        F  0.35781372  0.39568055  0.27754640    -0.15800
F172        F  0.44400828  0.44624088  0.32308159    -0.13400
C173        C  0.02708630  0.14121533  0.39148430     0.24600
C174        C  0.05318162  0.11587952  0.39918832    -0.23500
C175        C  0.10476278  0.13960854  0.39096609     0.19500
C176        C  0.12661544  0.18151543  0.36588212     0.24500
C177        C  0.09804705  0.20234323  0.35098942    -0.23500
C178        C  0.04906321  0.18363749  0.36734411     0.19400
F179        F  0.02154221  0.20545239  0.35882716    -0.13400
F180        F  0.48004150  0.12495097  0.40680084    -0.15800
F181        F  0.17517661  0.20023578  0.35452204    -0.15800
F182        F  0.13411075  0.12180949  0.40615056    -0.13400
C183        C  0.08950579  0.46508126  0.10616458     0.24600
C184        C  0.04147655  0.45679034  0.11706425    -0.23500
C185        C  0.01433434  0.42321146  0.15018910     0.19500
C186        C  0.03421241  0.39735575  0.17138137     0.24500
C187        C  0.08308432  0.40668197  0.16186846    -0.23500
C188        C  0.11033719  0.44051453  0.12857769     0.19400
F189        F  0.15750199  0.45062366  0.11847136    -0.13400
F190        F  0.11702816  0.99859135  0.07523703    -0.15800
F191        F  0.00690161  0.36594399  0.20399781    -0.15800
F192        F  0.47063969  0.41871463  0.16542560    -0.13400
C193        C  0.32900905  0.38010800  0.13745072     0.24600
C194        C  0.29832421  0.40059975  0.14631386    -0.23500
C195        C  0.31017275  0.44403296  0.12576340     0.19500
C196        C  0.35492544  0.46928037  0.10255164     0.24500
C197        C  0.38938790  0.45212149  0.09987441    -0.23500
C198        C  0.37374647  0.40533635  0.11380324     0.19400
F199        F  0.40235892  0.38442166  0.10700049    -0.13400
F200        F  0.31781662  0.33713531  0.15457273    -0.15800
F201        F  0.36526796  0.01151076  0.08403937    -0.15800
F202        F  0.27946547  0.46324352  0.12982582    -0.13400
C203        C  0.11723729  0.18137062  0.13337228     0.24600
C204        C  0.08789140  0.20027248  0.15149723    -0.23500
C205        C  0.03775358  0.17935045  0.13866970     0.19500
C206        C  0.01614186  0.13692616  0.11426031     0.24500
C207        C  0.04367428  0.11334518  0.10368915    -0.23500
C208        C  0.09551462  0.13898303  0.10894621     0.19400
F209        F  0.12516674  0.12202545  0.09213861    -0.13400
F210        F  0.16687522  0.20300570  0.14037155    -0.15800
F211        F  0.46866642  0.11998070  0.10031018    -0.15800
F212        F  0.00883448  0.19881064  0.15102140    -0.13400
Fe213      Fe  0.19625694  0.90454983  0.25021169     1.65800
Fe214      Fe  0.19910024  0.80007860  0.24775629     1.73200
Fe215      Fe  0.08832287  0.80081639  0.25295548     1.54400
O216        O  0.08477005  0.83914545  0.30778271    -0.80700
O217        O  0.14994562  0.74935518  0.20376054    -0.79000
O218        O  0.15035001  0.90982109  0.29851164    -0.83200
O219        O  0.15284268  0.90904224  0.19889200    -0.78100
O220        O  0.08658211  0.75114137  0.29782152    -0.79800
O221        O  0.23999463  0.83721241  0.19186886    -0.82600
C222        C  0.10675649  0.88559271  0.19090309     0.98200
C223        C  0.10964811  0.88255756  0.31785789     1.05600
O224        O  0.16125370  0.83521690  0.25033309    -1.11600
O225        O  0.25483719  0.84610269  0.29037502    -0.74000
O226        O  0.24388615  0.90884400  0.30182374    -0.77500
O227        O  0.07937020  0.84597885  0.20924102    -0.78200
C228        C  0.26676804  0.88555785  0.30916979     0.97100
O229        O  0.24661628  0.90851200  0.20144508    -0.76100
O230        O  0.16229023  0.75919445  0.30371074    -0.81300
C231        C  0.10846799  0.73892701  0.18587634     0.99700
C232        C  0.11716599  0.74036421  0.31602781     1.05600
O233        O  0.08316120  0.75874132  0.19799828    -0.77000
C234        C  0.25857737  0.88050768  0.18126224     1.03900
C235        C  0.01909958  0.56115277  0.08938157     0.87500
C236        C  0.04278108  0.53377272  0.11157306    -0.52800
C237        C  0.02272331  0.98783542  0.09863173     0.10400
C238        C  0.47943921  0.97242406  0.06493895     0.21300
C239        C  0.02176746  0.55376316  0.03824166    -0.53500
C240        C  0.50110294  0.00736880  0.02476474     0.10500
C241        C  0.46409891  0.53151846  0.10195089    -0.53000
C242        C  0.44241226  0.98537687  0.08835040     0.11100
H243        H  0.07244731  0.54900123  0.13630268     0.15600
H244        H  0.46334701  0.93492233  0.05539198     0.01300
H245        H  0.03895155  0.58352779  0.01551213     0.15900
H246        H  0.44461214  0.54441629  0.12364005     0.15700
C247        C  0.02615077  0.56349163  0.41260348     0.87500
C248        C  0.47244773  0.53588633  0.39570559    -0.52800
C249        C  0.44892011  0.98952048  0.40737770     0.10400
C250        C  0.48136926  0.97418375  0.43478745     0.21300
C251        C  0.02343157  0.55479240  0.46396984    -0.53500
C252        C  0.50038599  0.00800320  0.47614449     0.10500
C253        C  0.05007709  0.53481188  0.39291925    -0.53000
C254        C  0.02782563  0.98854073  0.40552067     0.11100
H255        H  0.45549356  0.55021184  0.37279535     0.15600
H256        H  0.46190196  0.93620510  0.44285331     0.01300
H257        H  0.03980219  0.58375741  0.48785386     0.15900
H258        H  0.08113095  0.54923935  0.36955215     0.15700
Fe259      Fe  0.30419477  0.59567372  0.75314441     1.65800
Fe260      Fe  0.30168768  0.70008130  0.74952476     1.73200
Fe261      Fe  0.41207561  0.69845965  0.74678705     1.54400
O262        O  0.42017594  0.65336665  0.79115748    -0.80700
O263        O  0.33993626  0.73984865  0.69360720    -0.79000
O264        O  0.34563939  0.59438738  0.80782503    -0.83200
O265        O  0.35266138  0.58772963  0.70980938    -0.78100
O266        O  0.41712859  0.74169297  0.80088133    -0.79800
O267        O  0.24810007  0.65316731  0.70567920    -0.82600
C268        C  0.39243946  0.61406555  0.68871616     0.98200
C269        C  0.39234571  0.61598171  0.81275403     1.05600
O270        O  0.33925838  0.66477361  0.74983807    -1.11600
O271        O  0.25830066  0.66450752  0.80523313    -0.74000
O272        O  0.25155443  0.59311469  0.79805489    -0.77500
O273        O  0.41464158  0.65865076  0.69250925    -0.78200
C274        C  0.23901452  0.62137446  0.81659484     0.97100
O275        O  0.25903887  0.58993842  0.69869815    -0.76100
O276        O  0.35036933  0.75124057  0.79362430    -0.81300
C277        C  0.38521813  0.75849991  0.68205191     0.99700
C278        C  0.39180517  0.76192317  0.81192731     1.05600
O279        O  0.41535246  0.74792951  0.70127616    -0.77000
C280        C  0.23691231  0.61330242  0.68799651     1.03900
C281        C  0.47906058  0.93936744  0.91057864     0.87500
C282        C  0.03333676  0.96975771  0.89595510    -0.52800
C283        C  0.05501084  0.51570165  0.91000018     0.10400
C284        C  0.01891878  0.52785939  0.93598479     0.21300
C285        C  0.47880925  0.94626059  0.96219984    -0.53500
C286        C  0.99940267  0.49260553  0.97607064     0.10500
C287        C  0.45383013  0.96652758  0.89084423    -0.53000
C288        C  0.47406348  0.51224485  0.90445033     0.11100
H289        H  0.05238612  0.95745213  0.87301612     0.15600
H290        H  0.03537299  0.56545814  0.94536814     0.01300
H291        H  0.46294719  0.91640057  0.98492731     0.15900
H292        H  0.42379631  0.95176583  0.86647155     0.15700
C293        C  0.47729863  0.93496979  0.58616890     0.87500
C294        C  0.45463612  0.96266625  0.60986424    -0.52800
C295        C  0.47611796  0.50931439  0.59915827     0.10400
C296        C  0.01956531  0.52477581  0.56565801     0.21300
C297        C  0.47577864  0.94452709  0.53561100    -0.53500
C298        C  0.99768243  0.49144766  0.52411076     0.10500
C299        C  0.03226951  0.96274496  0.59945683    -0.53000
C300        C  0.05478477  0.50953215  0.58865545     0.11100
H301        H  0.42452626  0.94694799  0.63420114     0.15600
H302        H  0.03764296  0.56295980  0.55819268     0.01300
H303        H  0.45831219  0.91564990  0.51174489     0.15900
H304        H  0.05091675  0.94832844  0.62011732     0.15700
C305        C  0.38224707  0.81951361  0.86380928     0.24600
C306        C  0.41214383  0.80117892  0.84575658    -0.23500
C307        C  0.46238946  0.82293143  0.85834947     0.19500
C308        C  0.48318322  0.86479470  0.88368533     0.24500
C309        C  0.45490968  0.88742344  0.89516905    -0.23500
C310        C  0.40318454  0.86146825  0.88896381     0.19400
F311        F  0.37272515  0.87742414  0.90590323    -0.13400
F312        F  0.33272838  0.79769824  0.85610399    -0.15800
F313        F  0.03086668  0.88243041  0.89728762    -0.15800
F314        F  0.49229902  0.80500188  0.84467116    -0.13400
C315        C  0.12168025  0.59544610  0.88165531     0.24600
C316        C  0.10737968  0.54942642  0.89727285    -0.23500
C317        C  0.14247651  0.53312297  0.89544364     0.19500
C318        C  0.18723664  0.55865351  0.87246269     0.24500
C319        C  0.19839253  0.60145012  0.85080971    -0.23500
C320        C  0.16649760  0.62095899  0.85798357     0.19400
F321        F  0.17673212  0.66307698  0.83934211    -0.13400
F322        F  0.09154253  0.61501344  0.88678868    -0.15800
F323        F  0.21869781  0.54018349  0.86967746    -0.15800
F324        F  0.13265378  0.99127167  0.91453168    -0.13400
C325        C  0.48104557  0.57252954  0.84888164     0.24600
C326        C  0.45649692  0.54398085  0.88604814    -0.23500
C327        C  0.41181150  0.54117548  0.90126983     0.19500
C328        C  0.39138734  0.56605736  0.87875135     0.24500
C329        C  0.41615939  0.59494895  0.84142524    -0.23500
C330        C  0.46210895  0.59905980  0.82774728     0.19400
F331        F  0.48685027  0.62562553  0.79129908    -0.13400
F332        F  0.02097362  0.57144551  0.83036551    -0.15800
F333        F  0.34705302  0.56114980  0.89277130    -0.15800
F334        F  0.38692573  0.51263569  0.93656166    -0.13400
C335        C  0.47679657  0.85714131  0.60728668     0.24600
C336        C  0.45077365  0.88239826  0.59871890    -0.23500
C337        C  0.39902277  0.85856071  0.60581865     0.19500
C338        C  0.37667622  0.81673122  0.63087999     0.24500
C339        C  0.40500509  0.79611106  0.64684308    -0.23500
C340        C  0.45434040  0.81478545  0.63147934     0.19400
F341        F  0.48166669  0.79298458  0.64098101    -0.13400
F342        F  0.02375806  0.87277835  0.59204923    -0.15800
F343        F  0.32794317  0.79812300  0.64151286    -0.15800
F344        F  0.37026931  0.87706282  0.59072370    -0.13400
C345        C  0.18699244  0.55362668  0.62787144     0.24600
C346        C  0.19455458  0.59219545  0.65558533    -0.23500
C347        C  0.15849965  0.60757876  0.65508035     0.19500
C348        C  0.11462304  0.58293188  0.63031051     0.24500
C349        C  0.10549470  0.54217178  0.60569503    -0.23500
C350        C  0.14302572  0.52896029  0.60328617     0.19400
F351        F  0.13635011  0.99091639  0.57827510    -0.13400
F352        F  0.22145181  0.53869981  0.62554953    -0.15800
F353        F  0.07948314  0.59688951  0.63364912    -0.15800
F354        F  0.16378868  0.64451930  0.68113424    -0.13400
C355        C  0.45101786  0.53699879  0.66841986     0.24600
C356        C  0.45999902  0.54106607  0.62142634    -0.23500
C357        C  0.44919976  0.57206507  0.59622897     0.19500
C358        C  0.42810905  0.59732802  0.61777226     0.24500
C359        C  0.41662035  0.59070302  0.66428010    -0.23500
C360        C  0.42852099  0.56058601  0.68927434     0.19400
F361        F  0.41809289  0.55381166  0.73429868    -0.13400
F362        F  0.46362170  0.00962814  0.69431351    -0.15800
F363        F  0.41667905  0.62618854  0.59301693    -0.15800
F364        F  0.45663909  0.57599604  0.55066482    -0.13400
C365        C  0.01705981  0.91032365  0.37673088     0.24600
C366        C  0.04811488  0.95663272  0.39186953    -0.23500
C367        C  0.09970889  0.97386532  0.39096882     0.19500
C368        C  0.11987574  0.94785090  0.37032590     0.24500
C369        C  0.08889621  0.90371071  0.35049176    -0.23500
C370        C  0.03726823  0.88403540  0.35630876     0.19400
F371        F  0.00595968  0.84090361  0.33898344    -0.13400
F372        F  0.46711942  0.89150240  0.37841908    -0.15800
F373        F  0.16989994  0.96689473  0.36806455    -0.15800
F374        F  0.13091407  0.51670379  0.40898168    -0.13400
C375        C  0.35614832  0.95037883  0.40514580     0.24600
C376        C  0.40099312  0.95670405  0.38632247    -0.23500
C377        C  0.40077007  0.93753327  0.34343284     0.19500
C378        C  0.35643726  0.91213475  0.31974714     0.24500
C379        C  0.31164828  0.90688058  0.33779346    -0.23500
C380        C  0.31173050  0.92592805  0.38084999     0.19400
F381        F  0.26901303  0.92140206  0.39897943    -0.13400
F382        F  0.35580494  0.46965339  0.44609669    -0.15800
F383        F  0.35781372  0.89568053  0.27754657    -0.15800
F384        F  0.44400815  0.94624061  0.32308168    -0.13400
C385        C  0.02708628  0.64121525  0.39148434     0.24600
C386        C  0.05318161  0.61587948  0.39918835    -0.23500
C387        C  0.10476278  0.63960852  0.39096618     0.19500
C388        C  0.12661549  0.68151550  0.36588227     0.24500
C389        C  0.09804708  0.70234324  0.35098951    -0.23500
C390        C  0.04906321  0.68363742  0.36734416     0.19400
F391        F  0.02154218  0.70545224  0.35882710    -0.13400
F392        F  0.48004137  0.62495077  0.40680080    -0.15800
F393        F  0.17517664  0.70023582  0.35452209    -0.15800
F394        F  0.13411062  0.62180931  0.40615054    -0.13400
C395        C  0.08950584  0.96508132  0.10616458     0.24600
C396        C  0.04147661  0.95679039  0.11706423    -0.23500
C397        C  0.01433438  0.92321152  0.15018904     0.19500
C398        C  0.03421242  0.89735581  0.17138137     0.24500
C399        C  0.08308434  0.90668199  0.16186848    -0.23500
C400        C  0.11033724  0.94051457  0.12857770     0.19400
F401        F  0.15750204  0.95062371  0.11847137    -0.13400
F402        F  0.11702814  0.49859129  0.07523703    -0.15800
F403        F  0.00690158  0.86594405  0.20399779    -0.15800
F404        F  0.47063970  0.91871468  0.16542559    -0.13400
C405        C  0.32900904  0.88010800  0.13745077     0.24600
C406        C  0.29832429  0.90059982  0.14631394    -0.23500
C407        C  0.31017283  0.94403305  0.12576347     0.19500
C408        C  0.35492548  0.96928044  0.10255165     0.24500
C409        C  0.38938787  0.95212152  0.09987442    -0.23500
C410        C  0.37374645  0.90533636  0.11380326     0.19400
F411        F  0.40235889  0.88442169  0.10700048    -0.13400
F412        F  0.31781649  0.83713521  0.15457266    -0.15800
F413        F  0.36526784  0.51151062  0.08403932    -0.15800
F414        F  0.27946549  0.96324356  0.12982582    -0.13400
C415        C  0.11723732  0.68137052  0.13337251     0.24600
C416        C  0.08789144  0.70027242  0.15149739    -0.23500
C417        C  0.03775362  0.67935045  0.13866974     0.19500
C418        C  0.01614194  0.63692615  0.11426032     0.24500
C419        C  0.04367436  0.61334519  0.10368917    -0.23500
C420        C  0.09551471  0.63898302  0.10894629     0.19400
F421        F  0.12516687  0.62202550  0.09213864    -0.13400
F422        F  0.16687531  0.70300568  0.14037159    -0.15800
F423        F  0.46866638  0.61998055  0.10031024    -0.15800
F424        F  0.00883453  0.69881068  0.15102138    -0.13400
Fe425      Fe  0.69625693  0.40454985  0.25021171     1.65800
Fe426      Fe  0.69910021  0.30007858  0.24775629     1.73200
Fe427      Fe  0.58832287  0.30081638  0.25295548     1.54400
O428        O  0.58477000  0.33914541  0.30778271    -0.80700
O429        O  0.64994557  0.24935515  0.20376055    -0.79000
O430        O  0.65034997  0.40982106  0.29851166    -0.83200
O431        O  0.65284267  0.40904232  0.19889205    -0.78100
O432        O  0.58658207  0.25114134  0.29782150    -0.79800
O433        O  0.73999458  0.33721237  0.19186886    -0.82600
C434        C  0.60675650  0.38559274  0.19090310     0.98200
C435        C  0.60964806  0.38255752  0.31785789     1.05600
O436        O  0.66125369  0.33521690  0.25033309    -1.11600
O437        O  0.75483717  0.34610270  0.29037501    -0.74000
O438        O  0.74388616  0.40884403  0.30182374    -0.77500
O439        O  0.57937024  0.34597885  0.20924101    -0.78200
C440        C  0.76676806  0.38555786  0.30916977     0.97100
O441        O  0.74661623  0.40851197  0.20144508    -0.76100
O442        O  0.66229019  0.25919443  0.30371074    -0.81300
C443        C  0.60846793  0.23892698  0.18587635     0.99700
C444        C  0.61716596  0.24036418  0.31602779     1.05600
O445        O  0.58316115  0.25874130  0.19799829    -0.77000
C446        C  0.75857731  0.38050764  0.18126223     1.03900
C447        C  0.51909958  0.06115279  0.08938157     0.87500
C448        C  0.54278109  0.03377275  0.11157307    -0.52800
C449        C  0.52272334  0.48783543  0.09863175     0.10400
C450        C  0.97943919  0.47242404  0.06493894     0.21300
C451        C  0.52176745  0.05376318  0.03824166    -0.53500
C452        C  0.00110293  0.50736878  0.02476473     0.10500
C453        C  0.96409891  0.03151849  0.10195088    -0.53000
C454        C  0.94241222  0.48537684  0.08835038     0.11100
H455        H  0.57244730  0.04900129  0.13630270     0.15600
H456        H  0.96334699  0.43492232  0.05539199     0.01300
H457        H  0.53895152  0.08352781  0.01551216     0.15900
H458        H  0.94461218  0.04441639  0.12364002     0.15700
C459        C  0.52615080  0.06349169  0.41260349     0.87500
C460        C  0.97244775  0.03588638  0.39570561    -0.52800
C461        C  0.94892009  0.48952042  0.40737770     0.10400
C462        C  0.98136928  0.47418370  0.43478744     0.21300
C463        C  0.52343155  0.05479243  0.46396983    -0.53500
C464        C  0.00038601  0.50800313  0.47614447     0.10500
C465        C  0.55007710  0.03481191  0.39291927    -0.53000
C466        C  0.52782567  0.48854073  0.40552067     0.11100
H467        H  0.95549361  0.05021197  0.37279540     0.15600
H468        H  0.96190199  0.43620503  0.44285330     0.01300
H469        H  0.53980220  0.08375756  0.48785393     0.15900
H470        H  0.58113096  0.04923938  0.36955217     0.15700
Fe471      Fe  0.80419471  0.09567368  0.75314429     1.65800
Fe472      Fe  0.80168763  0.20008129  0.74952472     1.73200
Fe473      Fe  0.91207556  0.19845962  0.74678704     1.54400
O474        O  0.92017590  0.15336665  0.79115748    -0.80700
O475        O  0.83993626  0.23984877  0.69360727    -0.79000
O476        O  0.84563934  0.09438727  0.80782483    -0.83200
O477        O  0.85266135  0.08772965  0.70980927    -0.78100
O478        O  0.91712852  0.24169291  0.80088132    -0.79800
O479        O  0.74810009  0.15316734  0.70567906    -0.82600
C480        C  0.89243947  0.11406559  0.68871610     0.98200
C481        C  0.89234565  0.11598166  0.81275394     1.05600
O482        O  0.83925833  0.16477358  0.74983801    -1.11600
O483        O  0.75830059  0.16450746  0.80523308    -0.74000
O484        O  0.75155439  0.09311464  0.79805481    -0.77500
O485        O  0.91464156  0.15865079  0.69250924    -0.78200
C486        C  0.73901447  0.12137440  0.81659480     0.97100
O487        O  0.75903876  0.08993837  0.69869808    -0.76100
O488        O  0.85036925  0.25124050  0.79362430    -0.81300
C489        C  0.88521810  0.25849994  0.68205192     0.99700
C490        C  0.89180512  0.26192313  0.81192726     1.05600
O491        O  0.91535240  0.24792946  0.70127614    -0.77000
C492        C  0.73691224  0.11330239  0.68799642     1.03900
C493        C  0.97906058  0.43936735  0.91057864     0.87500
C494        C  0.53333687  0.46975770  0.89595507    -0.52800
C495        C  0.55501082  0.01570174  0.91000019     0.10400
C496        C  0.51891881  0.02785948  0.93598486     0.21300
C497        C  0.97880919  0.44626053  0.96219984    -0.53500
C498        C  0.49940272  0.99260557  0.97607067     0.10500
C499        C  0.95383011  0.46652746  0.89084414    -0.53000
C500        C  0.97406340  0.01224482  0.90445024     0.11100
H501        H  0.55238613  0.45745213  0.87301614     0.15600
H502        H  0.53537300  0.06545820  0.94536821     0.01300
H503        H  0.96294713  0.41640055  0.98492732     0.15900
H504        H  0.92379637  0.45176570  0.86647158     0.15700
C505        C  0.97729873  0.43496981  0.58616889     0.87500
C506        C  0.95463626  0.46266627  0.60986427    -0.52800
C507        C  0.97611795  0.00931442  0.59915821     0.10400
C508        C  0.51956515  0.02477580  0.56565803     0.21300
C509        C  0.97577875  0.44452708  0.53561101    -0.53500
C510        C  0.49768231  0.99144767  0.52411077     0.10500
C511        C  0.53226954  0.46274496  0.59945680    -0.53000
C512        C  0.55478464  0.00953211  0.58865544     0.11100
H513        H  0.92452651  0.44694806  0.63420115     0.15600
H514        H  0.53764279  0.06295977  0.55819270     0.01300
H515        H  0.95831223  0.41564989  0.51174491     0.15900
H516        H  0.55091685  0.44832839  0.62011734     0.15700
C517        C  0.88224706  0.31951357  0.86380924     0.24600
C518        C  0.91214383  0.30117892  0.84575649    -0.23500
C519        C  0.96238943  0.32293139  0.85834941     0.19500
C520        C  0.98318317  0.36479463  0.88368532     0.24500
C521        C  0.95490962  0.38742335  0.89516906    -0.23500
C522        C  0.90318451  0.36146817  0.88896381     0.19400
F523        F  0.87272513  0.37742407  0.90590321    -0.13400
F524        F  0.83272838  0.29769819  0.85610399    -0.15800
F525        F  0.53086682  0.38243037  0.89728760    -0.15800
F526        F  0.99229898  0.30500181  0.84467114    -0.13400
C527        C  0.62168024  0.09544611  0.88165532     0.24600
C528        C  0.60737967  0.04942645  0.89727290    -0.23500
C529        C  0.64247641  0.03312290  0.89544361     0.19500
C530        C  0.68723651  0.05865339  0.87246258     0.24500
C531        C  0.69839246  0.10145005  0.85080966    -0.23500
C532        C  0.66649757  0.12095897  0.85798355     0.19400
F533        F  0.67673208  0.16307696  0.83934209    -0.13400
F534        F  0.59154249  0.11501343  0.88678867    -0.15800
F535        F  0.71869774  0.04018343  0.86967742    -0.15800
F536        F  0.63265393  0.49127181  0.91453169    -0.13400
C537        C  0.98104549  0.07252944  0.84888151     0.24600
C538        C  0.95649684  0.04398079  0.88604802    -0.23500
C539        C  0.91181148  0.04117551  0.90126978     0.19500
C540        C  0.89138729  0.06605735  0.87875129     0.24500
C541        C  0.91615932  0.09494891  0.84142518    -0.23500
C542        C  0.96210888  0.09905974  0.82774720     0.19400
F543        F  0.98685022  0.12562551  0.79129904    -0.13400
F544        F  0.52097353  0.07144546  0.83036551    -0.15800
F545        F  0.84705297  0.06114976  0.89277129    -0.15800
F546        F  0.88692582  0.01263590  0.93656173    -0.13400
C547        C  0.97679652  0.35714128  0.60728668     0.24600
C548        C  0.95077366  0.38239824  0.59871886    -0.23500
C549        C  0.89902276  0.35856069  0.60581850     0.19500
C550        C  0.87667619  0.31673120  0.63087989     0.24500
C551        C  0.90500507  0.29611106  0.64684305    -0.23500
C552        C  0.95434036  0.31478541  0.63147933     0.19400
F553        F  0.98166664  0.29298453  0.64098101    -0.13400
F554        F  0.52375807  0.37277830  0.59204926    -0.15800
F555        F  0.82794318  0.29812300  0.64151283    -0.15800
F556        F  0.87026940  0.37706299  0.59072372    -0.13400
C557        C  0.68699234  0.05362666  0.62787135     0.24600
C558        C  0.69455447  0.09219540  0.65558527    -0.23500
C559        C  0.65849954  0.10757870  0.65508034     0.19500
C560        C  0.61462296  0.08293184  0.63031047     0.24500
C561        C  0.60549459  0.04217177  0.60569495    -0.23500
C562        C  0.64302562  0.02896029  0.60328605     0.19400
F563        F  0.63635009  0.49091636  0.57827510    -0.13400
F564        F  0.72145170  0.03869978  0.62554950    -0.15800
F565        F  0.57948306  0.09688947  0.63364912    -0.15800
F566        F  0.66378860  0.14451924  0.68113424    -0.13400
C567        C  0.95101793  0.03699890  0.66841976     0.24600
C568        C  0.95999907  0.04106616  0.62142628    -0.23500
C569        C  0.94919978  0.07206514  0.59622891     0.19500
C570        C  0.92810910  0.09732813  0.61777220     0.24500
C571        C  0.91662036  0.09070309  0.66428001    -0.23500
C572        C  0.92852094  0.06058602  0.68927419     0.19400
F573        F  0.91809278  0.05381158  0.73429848    -0.13400
F574        F  0.96362165  0.50962812  0.69431353    -0.15800
F575        F  0.91667898  0.12618857  0.59301688    -0.15800
F576        F  0.95663901  0.07599602  0.55066477    -0.13400
C577        C  0.51705978  0.41032369  0.37673083     0.24600
C578        C  0.54811490  0.45663270  0.39186956    -0.23500
C579        C  0.59970890  0.47386520  0.39096895     0.19500
C580        C  0.61987574  0.44785081  0.37032599     0.24500
C581        C  0.58889618  0.40371066  0.35049177    -0.23500
C582        C  0.53726817  0.38403538  0.35630877     0.19400
F583        F  0.50595962  0.34090358  0.33898345    -0.13400
F584        F  0.96711941  0.39150237  0.37841909    -0.15800
F585        F  0.66989996  0.46689457  0.36806484    -0.15800
F586        F  0.63091407  0.01670391  0.40898161    -0.13400
C587        C  0.85614831  0.45037879  0.40514579     0.24600
C588        C  0.90099313  0.45670401  0.38632246    -0.23500
C589        C  0.90077011  0.43753323  0.34343283     0.19500
C590        C  0.85643729  0.41213472  0.31974712     0.24500
C591        C  0.81164829  0.40688057  0.33779345    -0.23500
C592        C  0.81173049  0.42592800  0.38084998     0.19400
F593        F  0.76901300  0.42140201  0.39897941    -0.13400
F594        F  0.85580502  0.96965380  0.44609664    -0.15800
F595        F  0.85781369  0.39568049  0.27754656    -0.15800
F596        F  0.94400822  0.44624052  0.32308173    -0.13400
C597        C  0.52708633  0.14121533  0.39148432     0.24600
C598        C  0.55318164  0.11587953  0.39918835    -0.23500
C599        C  0.60476281  0.13960858  0.39096616     0.19500
C600        C  0.62661549  0.18151551  0.36588223     0.24500
C601        C  0.59804708  0.20234325  0.35098946    -0.23500
C602        C  0.54906324  0.18363749  0.36734412     0.19400
F603        F  0.52154229  0.20545243  0.35882715    -0.13400
F604        F  0.98004147  0.12495097  0.40680083    -0.15800
F605        F  0.67517663  0.20023581  0.35452206    -0.15800
F606        F  0.63411074  0.12180948  0.40615058    -0.13400
C607        C  0.58950580  0.46508125  0.10616458     0.24600
C608        C  0.54147659  0.45679035  0.11706426    -0.23500
C609        C  0.51433440  0.42321154  0.15018914     0.19500
C610        C  0.53421242  0.39735582  0.17138146     0.24500
C611        C  0.58308432  0.40668197  0.16186850    -0.23500
C612        C  0.61033719  0.44051452  0.12857770     0.19400
F613        F  0.65750199  0.45062366  0.11847136    -0.13400
F614        F  0.61702809  0.99859136  0.07523701    -0.15800
F615        F  0.50690156  0.36594400  0.20399785    -0.15800
F616        F  0.97063952  0.41871436  0.16542554    -0.13400
C617        C  0.82900901  0.38010801  0.13745076     0.24600
C618        C  0.79832422  0.40059979  0.14631394    -0.23500
C619        C  0.81017274  0.44403299  0.12576348     0.19500
C620        C  0.85492538  0.46928036  0.10255165     0.24500
C621        C  0.88938782  0.45212148  0.09987441    -0.23500
C622        C  0.87374640  0.40533634  0.11380324     0.19400
F623        F  0.90235882  0.38442165  0.10700048    -0.13400
F624        F  0.81781653  0.33713529  0.15457273    -0.15800
F625        F  0.86526790  0.01151076  0.08403938    -0.15800
F626        F  0.77946542  0.46324350  0.12982583    -0.13400
C627        C  0.61723730  0.18137056  0.13337245     0.24600
C628        C  0.58789140  0.20027243  0.15149739    -0.23500
C629        C  0.53775358  0.17935044  0.13866977     0.19500
C630        C  0.51614190  0.13692619  0.11426033     0.24500
C631        C  0.54367431  0.11334521  0.10368916    -0.23500
C632        C  0.59551467  0.13898303  0.10894628     0.19400
F633        F  0.62516681  0.12202548  0.09213866    -0.13400
F634        F  0.66687527  0.20300568  0.14037160    -0.15800
F635        F  0.96866639  0.11998069  0.10031019    -0.15800
F636        F  0.50883447  0.19881065  0.15102140    -0.13400
Fe637      Fe  0.69625690  0.90454982  0.25021169     1.65800
Fe638      Fe  0.69910018  0.80007860  0.24775631     1.73200
Fe639      Fe  0.58832281  0.80081639  0.25295549     1.54400
O640        O  0.58477000  0.83914545  0.30778270    -0.80700
O641        O  0.64994556  0.74935518  0.20376055    -0.79000
O642        O  0.65034996  0.90982109  0.29851162    -0.83200
O643        O  0.65284264  0.90904223  0.19889201    -0.78100
O644        O  0.58658203  0.75114139  0.29782156    -0.79800
O645        O  0.73999460  0.83721239  0.19186887    -0.82600
C646        C  0.60675646  0.88559271  0.19090309     0.98200
C647        C  0.60964809  0.88255756  0.31785789     1.05600
O648        O  0.66125365  0.83521690  0.25033310    -1.11600
O649        O  0.75483712  0.84610269  0.29037503    -0.74000
O650        O  0.74388610  0.90884401  0.30182375    -0.77500
O651        O  0.57937015  0.84597885  0.20924102    -0.78200
C652        C  0.76676799  0.88555785  0.30916980     0.97100
O653        O  0.74661626  0.90851199  0.20144509    -0.76100
O654        O  0.66229015  0.75919447  0.30371079    -0.81300
C655        C  0.60846793  0.73892701  0.18587635     0.99700
C656        C  0.61716592  0.74036424  0.31602787     1.05600
O657        O  0.58316113  0.75874132  0.19799828    -0.77000
C658        C  0.75857736  0.88050768  0.18126226     1.03900
C659        C  0.51909962  0.56115278  0.08938157     0.87500
C660        C  0.54278114  0.53377275  0.11157303    -0.52800
C661        C  0.52272329  0.98783542  0.09863174     0.10400
C662        C  0.97943922  0.97242406  0.06493895     0.21300
C663        C  0.52176748  0.55376319  0.03824165    -0.53500
C664        C  0.00110296  0.00736879  0.02476473     0.10500
C665        C  0.96409886  0.53151845  0.10195088    -0.53000
C666        C  0.94241226  0.98537688  0.08835038     0.11100
H667        H  0.57244747  0.54900134  0.13630269     0.15600
H668        H  0.96334698  0.93492233  0.05539200     0.01300
H669        H  0.53895142  0.58352781  0.01551215     0.15900
H670        H  0.94461207  0.54441628  0.12364005     0.15700
C671        C  0.52615075  0.56349164  0.41260348     0.87500
C672        C  0.97244773  0.53588633  0.39570562    -0.52800
C673        C  0.94892009  0.98952047  0.40737769     0.10400
C674        C  0.98136927  0.97418373  0.43478746     0.21300
C675        C  0.52343150  0.55479240  0.46396985    -0.53500
C676        C  0.00038600  0.00800319  0.47614449     0.10500
C677        C  0.55007713  0.53481192  0.39291926    -0.53000
C678        C  0.52782566  0.98854075  0.40552065     0.11100
H679        H  0.95549355  0.55021188  0.37279540     0.15600
H680        H  0.96190199  0.93620508  0.44285332     0.01300
H681        H  0.53980206  0.58375741  0.48785388     0.15900
H682        H  0.58113091  0.54923937  0.36955224     0.15700
Fe683      Fe  0.80419478  0.59567373  0.75314428     1.65800
Fe684      Fe  0.80168762  0.70008130  0.74952471     1.73200
Fe685      Fe  0.91207555  0.69845964  0.74678703     1.54400
O686        O  0.92017590  0.65336669  0.79115749    -0.80700
O687        O  0.83993620  0.73984867  0.69360719    -0.79000
O688        O  0.84563936  0.59438731  0.80782485    -0.83200
O689        O  0.85266139  0.58772962  0.70980927    -0.78100
O690        O  0.91712857  0.74169294  0.80088129    -0.79800
O691        O  0.74810010  0.65316733  0.70567908    -0.82600
C692        C  0.89243951  0.61406557  0.68871614     0.98200
C693        C  0.89234568  0.61598170  0.81275395     1.05600
O694        O  0.83925833  0.66477362  0.74983802    -1.11600
O695        O  0.75830058  0.66450751  0.80523305    -0.74000
O696        O  0.75155452  0.59311474  0.79805484    -0.77500
O697        O  0.91464157  0.65865078  0.69250924    -0.78200
C698        C  0.73901454  0.62137447  0.81659479     0.97100
O699        O  0.75903890  0.58993845  0.69869802    -0.76100
O700        O  0.85036929  0.75124053  0.79362428    -0.81300
C701        C  0.88521806  0.75849992  0.68205190     0.99700
C702        C  0.89180514  0.76192316  0.81192722     1.05600
O703        O  0.91535239  0.74792951  0.70127616    -0.77000
C704        C  0.73691232  0.61330243  0.68799640     1.03900
C705        C  0.97906055  0.93936737  0.91057863     0.87500
C706        C  0.53333680  0.96975774  0.89595508    -0.52800
C707        C  0.55501091  0.51570170  0.91000017     0.10400
C708        C  0.51891890  0.52785944  0.93598484     0.21300
C709        C  0.97880916  0.94626056  0.96219983    -0.53500
C710        C  0.49940283  0.49260556  0.97607067     0.10500
C711        C  0.95383008  0.96652748  0.89084415    -0.53000
C712        C  0.97406343  0.51224480  0.90445024     0.11100
H713        H  0.55238607  0.95745219  0.87301617     0.15600
H714        H  0.53537311  0.56545817  0.94536820     0.01300
H715        H  0.96294709  0.91640057  0.98492732     0.15900
H716        H  0.92379635  0.95176571  0.86647157     0.15700
C717        C  0.97729867  0.93496982  0.58616889     0.87500
C718        C  0.95463620  0.96266628  0.60986425    -0.52800
C719        C  0.97611806  0.50931444  0.59915826     0.10400
C720        C  0.51956522  0.52477579  0.56565801     0.21300
C721        C  0.97577871  0.94452711  0.53561100    -0.53500
C722        C  0.49768237  0.49144764  0.52411077     0.10500
C723        C  0.53226944  0.96274495  0.59945678    -0.53000
C724        C  0.55478472  0.50953213  0.58865542     0.11100
H725        H  0.92452642  0.94694804  0.63420121     0.15600
H726        H  0.53764288  0.56295977  0.55819268     0.01300
H727        H  0.95831219  0.91564991  0.51174489     0.15900
H728        H  0.55091678  0.94832832  0.62011734     0.15700
C729        C  0.88224707  0.81951361  0.86380912     0.24600
C730        C  0.91214388  0.80117896  0.84575642    -0.23500
C731        C  0.96238948  0.82293142  0.85834939     0.19500
C732        C  0.98318317  0.86479466  0.88368530     0.24500
C733        C  0.95490959  0.88742335  0.89516905    -0.23500
C734        C  0.90318449  0.86146817  0.88896374     0.19400
F735        F  0.87272505  0.87742410  0.90590293    -0.13400
F736        F  0.83272837  0.79769821  0.85610392    -0.15800
F737        F  0.53086677  0.88243040  0.89728759    -0.15800
F738        F  0.99229911  0.80500189  0.84467117    -0.13400
C739        C  0.62168033  0.59544612  0.88165529     0.24600
C740        C  0.60737974  0.54942643  0.89727278    -0.23500
C741        C  0.64247650  0.53312290  0.89544345     0.19500
C742        C  0.68723666  0.55865344  0.87246252     0.24500
C743        C  0.69839256  0.60145010  0.85080962    -0.23500
C744        C  0.66649763  0.62095899  0.85798352     0.19400
F745        F  0.67673206  0.66307697  0.83934211    -0.13400
F746        F  0.59154263  0.61501347  0.88678871    -0.15800
F747        F  0.71869796  0.54018354  0.86967743    -0.15800
F748        F  0.63265376  0.99127169  0.91453167    -0.13400
C749        C  0.98104553  0.57252950  0.84888155     0.24600
C750        C  0.95649686  0.54398080  0.88604804    -0.23500
C751        C  0.91181146  0.54117549  0.90126979     0.19500
C752        C  0.89138731  0.56605738  0.87875132     0.24500
C753        C  0.91615934  0.59494895  0.84142520    -0.23500
C754        C  0.96210891  0.59905979  0.82774723     0.19400
F755        F  0.98685023  0.62562555  0.79129904    -0.13400
F756        F  0.52097357  0.57144550  0.83036555    -0.15800
F757        F  0.84705298  0.56114982  0.89277127    -0.15800
F758        F  0.88692569  0.51263571  0.93656163    -0.13400
C759        C  0.97679647  0.85714127  0.60728656     0.24600
C760        C  0.95077364  0.88239827  0.59871888    -0.23500
C761        C  0.89902279  0.85856073  0.60581866     0.19500
C762        C  0.87667619  0.81673124  0.63087999     0.24500
C763        C  0.90500505  0.79611107  0.64684307    -0.23500
C764        C  0.95434032  0.81478543  0.63147925     0.19400
F765        F  0.98166660  0.79298453  0.64098074    -0.13400
F766        F  0.52375814  0.87277832  0.59204930    -0.15800
F767        F  0.82794315  0.79812302  0.64151285    -0.15800
F768        F  0.87026938  0.87706285  0.59072367    -0.13400
C769        C  0.68699236  0.55362662  0.62787141     0.24600
C770        C  0.69455453  0.59219540  0.65558531    -0.23500
C771        C  0.65849961  0.60757872  0.65508035     0.19500
C772        C  0.61462306  0.58293187  0.63031046     0.24500
C773        C  0.60549468  0.54217180  0.60569492    -0.23500
C774        C  0.64302568  0.52896029  0.60328605     0.19400
F775        F  0.63635004  0.99091637  0.57827509    -0.13400
F776        F  0.72145172  0.53869978  0.62554951    -0.15800
F777        F  0.57948319  0.59688953  0.63364911    -0.15800
F778        F  0.66378861  0.64451926  0.68113422    -0.13400
C779        C  0.95101810  0.53699898  0.66841987     0.24600
C780        C  0.95999917  0.54106615  0.62142635    -0.23500
C781        C  0.94919981  0.57206505  0.59622893     0.19500
C782        C  0.92810909  0.59732800  0.61777222     0.24500
C783        C  0.91662045  0.59070309  0.66428008    -0.23500
C784        C  0.92852114  0.56058612  0.68927432     0.19400
F785        F  0.91809285  0.55381164  0.73429861    -0.13400
F786        F  0.96362161  0.00962815  0.69431345    -0.15800
F787        F  0.91667921  0.62618861  0.59301690    -0.15800
F788        F  0.95663926  0.57599608  0.55066481    -0.13400
C789        C  0.51705985  0.91032367  0.37673088     0.24600
C790        C  0.54811493  0.95663274  0.39186952    -0.23500
C791        C  0.59970896  0.97386534  0.39096880     0.19500
C792        C  0.61987580  0.94785090  0.37032590     0.24500
C793        C  0.58889623  0.90371070  0.35049179    -0.23500
C794        C  0.53726825  0.88403540  0.35630880     0.19400
F795        F  0.50595967  0.84090363  0.33898344    -0.13400
F796        F  0.96711939  0.89150241  0.37841908    -0.15800
F797        F  0.66990000  0.96689470  0.36806457    -0.15800
F798        F  0.63091401  0.51670378  0.40898172    -0.13400
C799        C  0.85614832  0.95037897  0.40514574     0.24600
C800        C  0.90099312  0.95670410  0.38632243    -0.23500
C801        C  0.90077007  0.93753328  0.34343281     0.19500
C802        C  0.85643723  0.91213472  0.31974713     0.24500
C803        C  0.81164824  0.90688058  0.33779347    -0.23500
C804        C  0.81173048  0.92592811  0.38084996     0.19400
F805        F  0.76901299  0.92140207  0.39897942    -0.13400
F806        F  0.85580502  0.46965370  0.44609664    -0.15800
F807        F  0.85781354  0.89568025  0.27754663    -0.15800
F808        F  0.94400819  0.94624056  0.32308172    -0.13400
C809        C  0.52708625  0.64121524  0.39148434     0.24600
C810        C  0.55318160  0.61587949  0.39918834    -0.23500
C811        C  0.60476276  0.63960857  0.39096616     0.19500
C812        C  0.62661543  0.68151553  0.36588226     0.24500
C813        C  0.59804702  0.70234327  0.35098954    -0.23500
C814        C  0.54906314  0.68363742  0.36734417     0.19400
F815        F  0.52154209  0.70545222  0.35882712    -0.13400
F816        F  0.98004139  0.62495080  0.40680078    -0.15800
F817        F  0.67517658  0.70023585  0.35452207    -0.15800
F818        F  0.63411072  0.62180952  0.40615059    -0.13400
C819        C  0.58950584  0.96508131  0.10616457     0.24600
C820        C  0.54147661  0.95679039  0.11706424    -0.23500
C821        C  0.51433441  0.92321157  0.15018909     0.19500
C822        C  0.53421242  0.89735582  0.17138135     0.24500
C823        C  0.58308433  0.90668199  0.16186845    -0.23500
C824        C  0.61033727  0.94051458  0.12857769     0.19400
F825        F  0.65750210  0.95062371  0.11847137    -0.13400
F826        F  0.61702810  0.49859129  0.07523703    -0.15800
F827        F  0.50690157  0.86594407  0.20399778    -0.15800
F828        F  0.97063949  0.91871438  0.16542528    -0.13400
C829        C  0.82900903  0.88010801  0.13745079     0.24600
C830        C  0.79832428  0.90059982  0.14631397    -0.23500
C831        C  0.81017278  0.94403304  0.12576352     0.19500
C832        C  0.85492543  0.96928045  0.10255167     0.24500
C833        C  0.88938784  0.95212153  0.09987441    -0.23500
C834        C  0.87374642  0.90533636  0.11380325     0.19400
F835        F  0.90235883  0.88442167  0.10700044    -0.13400
F836        F  0.81781645  0.83713520  0.15457265    -0.15800
F837        F  0.86526775  0.51151060  0.08403931    -0.15800
F838        F  0.77946550  0.96324358  0.12982608    -0.13400
C839        C  0.61723728  0.68137053  0.13337251     0.24600
C840        C  0.58789138  0.70027243  0.15149740    -0.23500
C841        C  0.53775357  0.67935045  0.13866974     0.19500
C842        C  0.51614189  0.63692616  0.11426031     0.24500
C843        C  0.54367432  0.61334521  0.10368915    -0.23500
C844        C  0.59551466  0.63898304  0.10894629     0.19400
F845        F  0.62516681  0.62202551  0.09213863    -0.13400
F846        F  0.66687526  0.70300569  0.14037159    -0.15800
F847        F  0.96866644  0.61998054  0.10031021    -0.15800
F848        F  0.50883448  0.69881067  0.15102138    -0.13400
loop_ 
_geom_bond_atom_site_label_1 
_geom_bond_atom_site_label_2 
_geom_bond_distance 
_geom_bond_site_symmetry_2 
_ccdc_geom_bond_type 
Fe1          O17   2.067       .  S
Fe1           O7   2.072       .  S
Fe1          O14   2.074       .  S
Fe1           O6   2.063       .  S
Fe1          O12   1.965       .  S
Fe2           O5   2.069       .  S
Fe2           O9   2.071       .  S
Fe2          O13   2.072       .  S
Fe2          O18   2.078       .  S
Fe2          O12   1.975       .  S
Fe3          O21   2.066       .  S
Fe3           O8   2.062       .  S
Fe3          O15   2.063       .  S
Fe3           O4   2.064       .  S
Fe3          O12   1.972       .  S
O4           C11   1.269       .  A
O5           C19   1.270       .  A
O6           C11   1.270       .  A
O7           C10   1.270       .  A
O8           C20   1.269       .  A
O9           C22   1.271       .  A
C10          O15   1.268       .  A
C10         C187   1.485       .  S
C11         C157   1.484       .  S
O13          C16   1.269       .  A
O14          C16   1.270       .  A
C16         C167   1.479       .  S
O17          C22   1.271       .  A
O18          C20   1.272       .  A
C19          O21   1.269       .  A
C19         C204   1.491       .  S
C20         C177   1.493       .  S
C22         C194   1.488       .  S
C23          C24   1.536       .  S
C23          C27   1.533       .  S
C23         C453   1.538   1_455  S
C23         C207   1.538       .  S
C24          H31   1.086       .  S
C24         C237   1.359   1_545  D
C25         C450   1.543   1_455  S
C25         C236   1.359       .  D
C25         C184   1.479       .  S
C26          C30   1.546       .  S
C26          C28   1.550       .  S
C26         C449   1.543       .  S
C26          H32   1.102       .  S
C27          H33   1.081       .  S
C27         C664   1.375       .  D
C28         C663   1.375       .  D
C28         C710   1.503   1_554  S
C29         C447   1.538       .  S
C29          H34   1.083       .  S
C29         C242   1.368   1_545  D
C30         C241   1.368       .  D
C30         C197   1.501       .  S
C35          C41   1.541       .  S
C35          C39   1.535       .  S
C35         C460   1.539   1_455  S
C35         C174   1.538       .  S
C36         C459   1.539       .  S
C36          H43   1.085       .  S
C36         C249   1.359   1_545  D
C37          C38   1.540       .  S
C37         C248   1.359       .  D
C37         C164   1.480       .  S
C38          C40   1.550       .  S
C38         C466   1.536       .  S
C38          H44   1.103       .  S
C39          H45   1.082       .  S
C39         C676   1.375       .  D
C40         C675   1.375       .  D
C40         C722   1.501       .  S
C41          H46   1.084       .  S
C41         C254   1.364   1_545  D
C42         C462   1.536   1_455  S
C42         C253   1.364       .  D
C42         C154   1.489       .  S
Fe47         O63   2.076       .  S
Fe47         O53   2.064       .  S
Fe47         O60   2.057       .  S
Fe47         O52   2.071       .  S
Fe47         O58   1.961       .  S
Fe48         O51   2.075       .  S
Fe48         O55   2.073       .  S
Fe48         O59   2.080       .  S
Fe48         O64   2.072       .  S
Fe48         O58   1.971       .  S
Fe49         O67   2.054       .  S
Fe49         O54   2.070       .  S
Fe49         O61   2.072       .  S
Fe49         O50   2.062       .  S
Fe49         O58   1.969       .  S
O50          C57   1.268       .  A
O51          C65   1.271       .  A
O52          C57   1.271       .  A
O53          C56   1.269       .  A
O54          C66   1.272       .  A
O55          C68   1.272       .  A
C56          O61   1.269       .  A
C56         C147   1.471       .  S
C57         C117   1.481       .  S
O59          C62   1.271       .  A
O60          C62   1.268       .  A
C62         C107   1.489       .  S
O63          C68   1.274       .  A
O64          C66   1.272       .  A
C65          O67   1.266       .  A
C65         C127   1.490       .  S
C66          C94   1.493       .  S
C68         C134   1.494       .  S
C69          C75   1.537       .  S
C69          C73   1.537       .  S
C69         C494   1.539       .  S
C69          C97   1.541       .  S
C70         C493   1.539   1_455  S
C70          H77   1.083       .  S
C70         C283   1.366       .  D
C71          C72   1.541       .  S
C71         C282   1.366   1_545  D
C71         C104   1.498       .  S
C72          C74   1.550   1_445  S
C72         C500   1.537   1_455  S
C72          H78   1.103       .  S
C73          H79   1.081       .  S
C73         C710   1.377       .  D
C74         C709   1.377       .  D
C74         C664   1.503   1_666  S
C75          H80   1.086       .  S
C75         C288   1.358       .  D
C76         C496   1.537       .  S
C76         C287   1.358   1_545  D
C76         C114   1.472       .  S
C81          C82   1.534       .  S
C81          C85   1.528       .  S
C81         C511   1.540       .  S
C81         C124   1.536       .  S
C82          H89   1.085       .  S
C82         C295   1.361       .  D
C83         C508   1.538       .  S
C83         C294   1.361   1_545  D
C83         C144   1.483       .  S
C84          C88   1.546       .  S
C84          C86   1.554   1_445  S
C84         C507   1.538   1_455  S
C84          H90   1.106       .  S
C85          H91   1.082       .  S
C85         C722   1.374       .  D
C86         C721   1.374       .  D
C86         C676   1.501   1_665  S
C87         C505   1.540   1_455  S
C87          H92   1.084       .  S
C87         C300   1.365       .  D
C88         C299   1.365   1_545  D
C88         C137   1.493       .  S
C93          C94   1.410       .  A
C93          C98   1.400       .  A
C93         F100   1.358       .  S
C94          C95   1.409       .  A
C95          C96   1.401       .  A
C95         F102   1.358       .  S
C96          C97   1.415       .  A
C96         F525   1.357       .  S
C97          C98   1.412       .  A
C98          F99   1.358       .  S
F101        C520   1.357   1_455  S
C103        C104   1.410       .  A
C103        C108   1.406       .  A
C103        F110   1.355       .  S
C104        C105   1.408       .  A
C105        C106   1.395       .  A
C105        F324   1.358   1_545  S
C106        C107   1.408       .  A
C106        F111   1.358       .  S
C107        C108   1.410       .  A
C108        F109   1.358       .  S
F112        C317   1.358       .  S
C113        C114   1.398       .  A
C113        C118   1.393       .  A
C113        F544   1.357       .  S
C114        C115   1.404       .  A
C115        C116   1.403       .  A
C115        F122   1.358       .  S
C116        C117   1.408       .  A
C116        F121   1.358       .  S
C117        C118   1.411       .  A
C118        F119   1.358       .  S
F120        C537   1.357   1_455  S
C123        C124   1.411       .  A
C123        C128   1.398       .  A
C123        F554   1.357       .  S
C124        C125   1.413       .  A
C125        C126   1.399       .  A
C125        F132   1.358       .  S
C126        C127   1.407       .  A
C126        F131   1.357       .  S
C127        C128   1.412       .  A
C128        F129   1.358       .  S
F130        C547   1.357   1_455  S
C133        C134   1.409       .  A
C133        C138   1.401       .  A
C133        F140   1.358       .  S
C134        C135   1.414       .  A
C135        C136   1.402       .  A
C135        F142   1.358       .  S
C136        C137   1.405       .  A
C136        F141   1.357       .  S
C137        C138   1.409       .  A
C138        F351   1.358   1_545  S
F139        C350   1.358       .  S
C143        C144   1.405       .  A
C143        C148   1.389       .  A
C143        F362   1.359       .  S
C144        C145   1.409       .  A
C145        C146   1.408       .  A
C145        F152   1.357       .  S
C146        C147   1.405       .  A
C146        F151   1.357       .  S
C147        C148   1.402       .  A
C148        F149   1.358       .  S
F150        C355   1.359       .  S
C153        C154   1.407       .  A
C153        C158   1.401       .  A
C153        F584   1.356   1_455  S
C154        C155   1.409       .  A
C155        C156   1.395       .  A
C155        F374   1.358       .  S
C156        C157   1.407       .  A
C156        F161   1.358       .  S
C157        C158   1.410       .  A
C158        F159   1.358       .  S
F160        C577   1.356       .  S
F162        C367   1.358   1_545  S
C163        C164   1.406       .  A
C163        C168   1.406       .  A
C163        F382   1.357       .  S
C164        C165   1.403       .  A
C165        C166   1.398       .  A
C165        F172   1.358       .  S
C166        C167   1.407       .  A
C166        F171   1.358       .  S
C167        C168   1.407       .  A
C168        F169   1.357       .  S
F170        C375   1.357       .  S
C173        C174   1.411       .  A
C173        C178   1.399       .  A
C173        F604   1.358   1_455  S
C174        C175   1.414       .  A
C175        C176   1.401       .  A
C175        F182   1.358       .  S
C176        C177   1.408       .  A
C176        F181   1.357       .  S
C177        C178   1.412       .  A
C178        F179   1.358       .  S
F180        C597   1.358       .  S
C183        C184   1.405       .  A
C183        C188   1.402       .  A
C183        F402   1.358       .  S
C184        C185   1.401       .  A
C185        C186   1.397       .  A
C185        F616   1.355   1_455  S
C186        C187   1.411       .  A
C186        F191   1.358       .  S
C187        C188   1.409       .  A
C188        F189   1.358       .  S
F190        C395   1.358       .  S
F192        C609   1.355       .  S
C193        C194   1.409       .  A
C193        C198   1.403       .  A
C193        F200   1.358       .  S
C194        C195   1.407       .  A
C195        C196   1.397       .  A
C195        F202   1.358       .  S
C196        C197   1.412       .  A
C196        F413   1.358       .  S
C197        C198   1.410       .  A
C198        F199   1.353       .  S
F201        C408   1.358   1_545  S
C203        C204   1.410       .  A
C203        C208   1.399       .  A
C203        F210   1.358       .  S
C204        C205   1.409       .  A
C205        C206   1.400       .  A
C205        F212   1.358       .  S
C206        C207   1.415       .  A
C206        F635   1.357   1_455  S
C207        C208   1.411       .  A
C208        F209   1.358       .  S
F211        C630   1.357       .  S
Fe213       O229   2.067       .  S
Fe213       O219   2.072       .  S
Fe213       O226   2.074       .  S
Fe213       O218   2.063       .  S
Fe213       O224   1.965       .  S
Fe214       O217   2.069       .  S
Fe214       O221   2.071       .  S
Fe214       O225   2.072       .  S
Fe214       O230   2.078       .  S
Fe214       O224   1.975       .  S
Fe215       O233   2.066       .  S
Fe215       O220   2.062       .  S
Fe215       O227   2.063       .  S
Fe215       O216   2.064       .  S
Fe215       O224   1.972       .  S
O216        C223   1.269       .  A
O217        C231   1.270       .  A
O218        C223   1.270       .  A
O219        C222   1.270       .  A
O220        C232   1.269       .  A
O221        C234   1.271       .  A
C222        O227   1.268       .  A
C222        C399   1.485       .  S
C223        C369   1.484       .  S
O225        C228   1.269       .  A
O226        C228   1.270       .  A
C228        C379   1.479       .  S
O229        C234   1.271       .  A
O230        C232   1.272       .  A
C231        O233   1.269       .  A
C231        C416   1.491       .  S
C232        C389   1.493       .  S
C234        C406   1.488       .  S
C235        C236   1.536       .  S
C235        C665   1.538   1_455  S
C235        C239   1.533       .  S
C235        C419   1.538       .  S
C236        H243   1.086       .  S
C237        C662   1.543   1_455  S
C237        C396   1.479       .  S
C238        C661   1.543       .  S
C238        C242   1.546       .  S
C238        C240   1.550   1_565  S
C238        H244   1.102       .  S
C239        H245   1.081       .  S
C239        C452   1.375       .  D
C240        C451   1.375       .  D
C240        C498   1.503   1_544  S
C241        C659   1.538       .  S
C241        H246   1.083       .  S
C242        C409   1.501       .  S
C247        C672   1.539   1_455  S
C247        C253   1.541       .  S
C247        C251   1.535       .  S
C247        C386   1.538       .  S
C248        C671   1.539       .  S
C248        H255   1.085       .  S
C249        C250   1.540       .  S
C249        C376   1.480       .  S
C250        C678   1.536       .  S
C250        C252   1.550   1_565  S
C250        H256   1.103       .  S
C251        H257   1.082       .  S
C251        C464   1.375       .  D
C252        C463   1.375       .  D
C252        C510   1.501   1_545  S
C253        H258   1.084       .  S
C254        C674   1.536   1_455  S
C254        C366   1.489       .  S
Fe259       O275   2.076       .  S
Fe259       O265   2.064       .  S
Fe259       O272   2.057       .  S
Fe259       O264   2.071       .  S
Fe259       O270   1.961       .  S
Fe260       O263   2.075       .  S
Fe260       O267   2.073       .  S
Fe260       O271   2.080       .  S
Fe260       O276   2.072       .  S
Fe260       O270   1.971       .  S
Fe261       O279   2.054       .  S
Fe261       O266   2.070       .  S
Fe261       O273   2.072       .  S
Fe261       O262   2.062       .  S
Fe261       O270   1.969       .  S
O262        C269   1.268       .  A
O263        C277   1.271       .  A
O264        C269   1.271       .  A
O265        C268   1.269       .  A
O266        C278   1.272       .  A
O267        C280   1.272       .  A
C268        O273   1.269       .  A
C268        C359   1.471       .  S
C269        C329   1.481       .  S
O271        C274   1.271       .  A
O272        C274   1.268       .  A
C274        C319   1.489       .  S
O275        C280   1.274       .  A
O276        C278   1.272       .  A
C277        O279   1.266       .  A
C277        C339   1.490       .  S
C278        C306   1.493       .  S
C280        C346   1.494       .  S
C281        C706   1.539       .  S
C281        C287   1.537       .  S
C281        C285   1.537       .  S
C281        C309   1.541       .  S
C282        C705   1.539   1_455  S
C282        H289   1.083       .  S
C283        C284   1.541       .  S
C283        C316   1.498       .  S
C284        C712   1.537   1_455  S
C284        C286   1.550   1_455  S
C284        H290   1.103       .  S
C285        H291   1.081       .  S
C285        C498   1.377       .  D
C286        C497   1.377       .  D
C286        C452   1.503   1_656  S
C287        H292   1.086       .  S
C288        C708   1.537       .  S
C288        C326   1.472       .  S
C293        C294   1.534       .  S
C293        C723   1.540       .  S
C293        C297   1.528       .  S
C293        C336   1.536       .  S
C294        H301   1.085       .  S
C295        C720   1.538       .  S
C295        C356   1.483       .  S
C296        C719   1.538   1_455  S
C296        C300   1.546       .  S
C296        C298   1.554   1_455  S
C296        H302   1.106       .  S
C297        H303   1.082       .  S
C297        C510   1.374       .  D
C298        C509   1.374       .  D
C298        C464   1.501   1_655  S
C299        C717   1.540   1_455  S
C299        H304   1.084       .  S
C300        C349   1.493       .  S
C305        C306   1.410       .  A
C305        C310   1.400       .  A
C305        F312   1.358       .  S
C306        C307   1.409       .  A
C307        C308   1.401       .  A
C307        F314   1.358       .  S
C308        C309   1.415       .  A
C308        F737   1.357       .  S
C309        C310   1.412       .  A
C310        F311   1.358       .  S
F313        C732   1.357   1_455  S
C315        C316   1.410       .  A
C315        C320   1.406       .  A
C315        F322   1.355       .  S
C316        C317   1.408       .  A
C317        C318   1.395       .  A
C318        C319   1.408       .  A
C318        F323   1.358       .  S
C319        C320   1.410       .  A
C320        F321   1.358       .  S
C325        C326   1.398       .  A
C325        C330   1.393       .  A
C325        F756   1.357       .  S
C326        C327   1.404       .  A
C327        C328   1.403       .  A
C327        F334   1.358       .  S
C328        C329   1.408       .  A
C328        F333   1.358       .  S
C329        C330   1.411       .  A
C330        F331   1.358       .  S
F332        C749   1.357   1_455  S
C335        C336   1.411       .  A
C335        C340   1.398       .  A
C335        F766   1.357       .  S
C336        C337   1.413       .  A
C337        C338   1.399       .  A
C337        F344   1.358       .  S
C338        C339   1.407       .  A
C338        F343   1.357       .  S
C339        C340   1.412       .  A
C340        F341   1.358       .  S
F342        C759   1.357   1_455  S
C345        C346   1.409       .  A
C345        C350   1.401       .  A
C345        F352   1.358       .  S
C346        C347   1.414       .  A
C347        C348   1.402       .  A
C347        F354   1.358       .  S
C348        C349   1.405       .  A
C348        F353   1.357       .  S
C349        C350   1.409       .  A
C355        C356   1.405       .  A
C355        C360   1.389       .  A
C356        C357   1.409       .  A
C357        C358   1.408       .  A
C357        F364   1.357       .  S
C358        C359   1.405       .  A
C358        F363   1.357       .  S
C359        C360   1.402       .  A
C360        F361   1.358       .  S
C365        C366   1.407       .  A
C365        C370   1.401       .  A
C365        F796   1.356   1_455  S
C366        C367   1.409       .  A
C367        C368   1.395       .  A
C368        C369   1.407       .  A
C368        F373   1.358       .  S
C369        C370   1.410       .  A
C370        F371   1.358       .  S
F372        C789   1.356       .  S
C375        C376   1.406       .  A
C375        C380   1.406       .  A
C376        C377   1.403       .  A
C377        C378   1.398       .  A
C377        F384   1.358       .  S
C378        C379   1.407       .  A
C378        F383   1.358       .  S
C379        C380   1.407       .  A
C380        F381   1.357       .  S
C385        C386   1.411       .  A
C385        C390   1.399       .  A
C385        F816   1.358   1_455  S
C386        C387   1.414       .  A
C387        C388   1.401       .  A
C387        F394   1.358       .  S
C388        C389   1.408       .  A
C388        F393   1.357       .  S
C389        C390   1.412       .  A
C390        F391   1.358       .  S
F392        C809   1.358       .  S
C395        C396   1.405       .  A
C395        C400   1.402       .  A
C396        C397   1.401       .  A
C397        C398   1.397       .  A
C397        F828   1.355   1_455  S
C398        C399   1.411       .  A
C398        F403   1.358       .  S
C399        C400   1.409       .  A
C400        F401   1.358       .  S
F404        C821   1.355       .  S
C405        C406   1.409       .  A
C405        C410   1.403       .  A
C405        F412   1.358       .  S
C406        C407   1.407       .  A
C407        C408   1.397       .  A
C407        F414   1.358       .  S
C408        C409   1.412       .  A
C409        C410   1.410       .  A
C410        F411   1.353       .  S
C415        C416   1.410       .  A
C415        C420   1.399       .  A
C415        F422   1.358       .  S
C416        C417   1.409       .  A
C417        C418   1.400       .  A
C417        F424   1.358       .  S
C418        C419   1.415       .  A
C418        F847   1.357   1_455  S
C419        C420   1.411       .  A
C420        F421   1.358       .  S
F423        C842   1.357       .  S
Fe425       O441   2.067       .  S
Fe425       O431   2.072       .  S
Fe425       O438   2.074       .  S
Fe425       O430   2.063       .  S
Fe425       O436   1.965       .  S
Fe426       O429   2.069       .  S
Fe426       O433   2.071       .  S
Fe426       O437   2.072       .  S
Fe426       O442   2.078       .  S
Fe426       O436   1.975       .  S
Fe427       O445   2.066       .  S
Fe427       O432   2.062       .  S
Fe427       O439   2.063       .  S
Fe427       O428   2.064       .  S
Fe427       O436   1.972       .  S
O428        C435   1.269       .  A
O429        C443   1.270       .  A
O430        C435   1.270       .  A
O431        C434   1.270       .  A
O432        C444   1.269       .  A
O433        C446   1.271       .  A
C434        O439   1.268       .  A
C434        C611   1.485       .  S
C435        C581   1.484       .  S
O437        C440   1.269       .  A
O438        C440   1.270       .  A
C440        C591   1.479       .  S
O441        C446   1.271       .  A
O442        C444   1.272       .  A
C443        O445   1.269       .  A
C443        C628   1.491       .  S
C444        C601   1.493       .  S
C446        C618   1.488       .  S
C447        C448   1.536       .  S
C447        C451   1.533       .  S
C447        C631   1.538       .  S
C448        H455   1.086       .  S
C448        C661   1.359   1_545  D
C449        C660   1.359       .  D
C449        C608   1.479       .  S
C450        C454   1.546       .  S
C450        C452   1.550   1_655  S
C450        H456   1.102       .  S
C451        H457   1.081       .  S
C453        H458   1.083       .  S
C453        C666   1.368   1_545  D
C454        C665   1.368       .  D
C454        C621   1.501       .  S
C459        C465   1.541       .  S
C459        C463   1.535       .  S
C459        C598   1.538       .  S
C460        H467   1.085       .  S
C460        C673   1.359   1_545  D
C461        C462   1.540       .  S
C461        C672   1.359       .  D
C461        C588   1.480       .  S
C462        C464   1.550   1_655  S
C462        H468   1.103       .  S
C463        H469   1.082       .  S
C465        H470   1.084       .  S
C465        C678   1.364   1_545  D
C466        C677   1.364       .  D
C466        C578   1.489       .  S
Fe471       O487   2.076       .  S
Fe471       O477   2.064       .  S
Fe471       O484   2.057       .  S
Fe471       O476   2.071       .  S
Fe471       O482   1.961       .  S
Fe472       O475   2.075       .  S
Fe472       O479   2.073       .  S
Fe472       O483   2.080       .  S
Fe472       O488   2.072       .  S
Fe472       O482   1.971       .  S
Fe473       O491   2.054       .  S
Fe473       O478   2.070       .  S
Fe473       O485   2.072       .  S
Fe473       O474   2.062       .  S
Fe473       O482   1.969       .  S
O474        C481   1.268       .  A
O475        C489   1.271       .  A
O476        C481   1.271       .  A
O477        C480   1.269       .  A
O478        C490   1.272       .  A
O479        C492   1.272       .  A
C480        O485   1.269       .  A
C480        C571   1.471       .  S
C481        C541   1.481       .  S
O483        C486   1.271       .  A
O484        C486   1.268       .  A
C486        C531   1.489       .  S
O487        C492   1.274       .  A
O488        C490   1.272       .  A
C489        O491   1.266       .  A
C489        C551   1.490       .  S
C490        C518   1.493       .  S
C492        C558   1.494       .  S
C493        C499   1.537       .  S
C493        C497   1.537       .  S
C493        C521   1.541       .  S
C494        H501   1.083       .  S
C494        C707   1.366       .  D
C495        C496   1.541       .  S
C495        C706   1.366   1_545  D
C495        C528   1.498       .  S
C496        C498   1.550   1_545  S
C496        H502   1.103       .  S
C497        H503   1.081       .  S
C499        H504   1.086       .  S
C499        C712   1.358       .  D
C500        C711   1.358   1_545  D
C500        C538   1.472       .  S
C505        C506   1.534       .  S
C505        C509   1.528       .  S
C505        C548   1.536       .  S
C506        H513   1.085       .  S
C506        C719   1.361       .  D
C507        C718   1.361   1_545  D
C507        C568   1.483       .  S
C508        C512   1.546       .  S
C508        C510   1.554   1_545  S
C508        H514   1.106       .  S
C509        H515   1.082       .  S
C511        H516   1.084       .  S
C511        C724   1.365       .  D
C512        C723   1.365   1_545  D
C512        C561   1.493       .  S
C517        C518   1.410       .  A
C517        C522   1.400       .  A
C517        F524   1.358       .  S
C518        C519   1.409       .  A
C519        C520   1.401       .  A
C519        F526   1.358       .  S
C520        C521   1.415       .  A
C521        C522   1.412       .  A
C522        F523   1.358       .  S
C527        C528   1.410       .  A
C527        C532   1.406       .  A
C527        F534   1.355       .  S
C528        C529   1.408       .  A
C529        C530   1.395       .  A
C529        F748   1.358   1_545  S
C530        C531   1.408       .  A
C530        F535   1.358       .  S
C531        C532   1.410       .  A
C532        F533   1.358       .  S
F536        C741   1.358       .  S
C537        C538   1.398       .  A
C537        C542   1.393       .  A
C538        C539   1.404       .  A
C539        C540   1.403       .  A
C539        F546   1.358       .  S
C540        C541   1.408       .  A
C540        F545   1.358       .  S
C541        C542   1.411       .  A
C542        F543   1.358       .  S
C547        C548   1.411       .  A
C547        C552   1.398       .  A
C548        C549   1.413       .  A
C549        C550   1.399       .  A
C549        F556   1.358       .  S
C550        C551   1.407       .  A
C550        F555   1.357       .  S
C551        C552   1.412       .  A
C552        F553   1.358       .  S
C557        C558   1.409       .  A
C557        C562   1.401       .  A
C557        F564   1.358       .  S
C558        C559   1.414       .  A
C559        C560   1.402       .  A
C559        F566   1.358       .  S
C560        C561   1.405       .  A
C560        F565   1.357       .  S
C561        C562   1.409       .  A
C562        F775   1.358   1_545  S
F563        C774   1.358       .  S
C567        C568   1.405       .  A
C567        C572   1.389       .  A
C567        F786   1.359       .  S
C568        C569   1.409       .  A
C569        C570   1.408       .  A
C569        F576   1.357       .  S
C570        C571   1.405       .  A
C570        F575   1.357       .  S
C571        C572   1.402       .  A
C572        F573   1.358       .  S
F574        C779   1.359       .  S
C577        C578   1.407       .  A
C577        C582   1.401       .  A
C578        C579   1.409       .  A
C579        C580   1.395       .  A
C579        F798   1.358       .  S
C580        C581   1.407       .  A
C580        F585   1.358       .  S
C581        C582   1.410       .  A
C582        F583   1.358       .  S
F586        C791   1.358   1_545  S
C587        C588   1.406       .  A
C587        C592   1.406       .  A
C587        F806   1.357       .  S
C588        C589   1.403       .  A
C589        C590   1.398       .  A
C589        F596   1.358       .  S
C590        C591   1.407       .  A
C590        F595   1.358       .  S
C591        C592   1.407       .  A
C592        F593   1.357       .  S
F594        C799   1.357       .  S
C597        C598   1.411       .  A
C597        C602   1.399       .  A
C598        C599   1.414       .  A
C599        C600   1.401       .  A
C599        F606   1.358       .  S
C600        C601   1.408       .  A
C600        F605   1.357       .  S
C601        C602   1.412       .  A
C602        F603   1.358       .  S
C607        C608   1.405       .  A
C607        C612   1.402       .  A
C607        F826   1.358       .  S
C608        C609   1.401       .  A
C609        C610   1.397       .  A
C610        C611   1.411       .  A
C610        F615   1.358       .  S
C611        C612   1.409       .  A
C612        F613   1.358       .  S
F614        C819   1.358       .  S
C617        C618   1.409       .  A
C617        C622   1.403       .  A
C617        F624   1.358       .  S
C618        C619   1.407       .  A
C619        C620   1.397       .  A
C619        F626   1.358       .  S
C620        C621   1.412       .  A
C620        F837   1.358       .  S
C621        C622   1.410       .  A
C622        F623   1.353       .  S
F625        C832   1.358   1_545  S
C627        C628   1.410       .  A
C627        C632   1.399       .  A
C627        F634   1.358       .  S
C628        C629   1.409       .  A
C629        C630   1.400       .  A
C629        F636   1.358       .  S
C630        C631   1.415       .  A
C631        C632   1.411       .  A
C632        F633   1.358       .  S
Fe637       O653   2.067       .  S
Fe637       O643   2.072       .  S
Fe637       O650   2.074       .  S
Fe637       O642   2.063       .  S
Fe637       O648   1.965       .  S
Fe638       O641   2.069       .  S
Fe638       O645   2.071       .  S
Fe638       O649   2.072       .  S
Fe638       O654   2.078       .  S
Fe638       O648   1.975       .  S
Fe639       O657   2.066       .  S
Fe639       O644   2.062       .  S
Fe639       O651   2.063       .  S
Fe639       O640   2.064       .  S
Fe639       O648   1.972       .  S
O640        C647   1.269       .  A
O641        C655   1.270       .  A
O642        C647   1.270       .  A
O643        C646   1.270       .  A
O644        C656   1.269       .  A
O645        C658   1.271       .  A
C646        O651   1.268       .  A
C646        C823   1.485       .  S
C647        C793   1.484       .  S
O649        C652   1.269       .  A
O650        C652   1.270       .  A
C652        C803   1.479       .  S
O653        C658   1.271       .  A
O654        C656   1.272       .  A
C655        O657   1.269       .  A
C655        C840   1.491       .  S
C656        C813   1.493       .  S
C658        C830   1.488       .  S
C659        C660   1.536       .  S
C659        C663   1.533       .  S
C659        C843   1.538       .  S
C660        H667   1.086       .  S
C661        C820   1.479       .  S
C662        C666   1.546       .  S
C662        C664   1.550   1_665  S
C662        H668   1.102       .  S
C663        H669   1.081       .  S
C665        H670   1.083       .  S
C666        C833   1.501       .  S
C671        C677   1.541       .  S
C671        C675   1.535       .  S
C671        C810   1.538       .  S
C672        H679   1.085       .  S
C673        C674   1.540       .  S
C673        C800   1.480       .  S
C674        C676   1.550   1_665  S
C674        H680   1.103       .  S
C675        H681   1.082       .  S
C677        H682   1.084       .  S
C678        C790   1.489       .  S
Fe683       O699   2.076       .  S
Fe683       O689   2.064       .  S
Fe683       O696   2.057       .  S
Fe683       O688   2.071       .  S
Fe683       O694   1.961       .  S
Fe684       O687   2.075       .  S
Fe684       O691   2.073       .  S
Fe684       O695   2.080       .  S
Fe684       O700   2.072       .  S
Fe684       O694   1.971       .  S
Fe685       O703   2.054       .  S
Fe685       O690   2.070       .  S
Fe685       O697   2.072       .  S
Fe685       O686   2.062       .  S
Fe685       O694   1.969       .  S
O686        C693   1.268       .  A
O687        C701   1.271       .  A
O688        C693   1.271       .  A
O689        C692   1.269       .  A
O690        C702   1.272       .  A
O691        C704   1.272       .  A
C692        O697   1.269       .  A
C692        C783   1.471       .  S
C693        C753   1.481       .  S
O695        C698   1.271       .  A
O696        C698   1.268       .  A
C698        C743   1.489       .  S
O699        C704   1.274       .  A
O700        C702   1.272       .  A
C701        O703   1.266       .  A
C701        C763   1.490       .  S
C702        C730   1.493       .  S
C704        C770   1.494       .  S
C705        C711   1.537       .  S
C705        C709   1.537       .  S
C705        C733   1.541       .  S
C706        H713   1.083       .  S
C707        C708   1.541       .  S
C707        C740   1.498       .  S
C708        C710   1.550       .  S
C708        H714   1.103       .  S
C709        H715   1.081       .  S
C711        H716   1.086       .  S
C712        C750   1.472       .  S
C717        C718   1.534       .  S
C717        C721   1.528       .  S
C717        C760   1.536       .  S
C718        H725   1.085       .  S
C719        C780   1.483       .  S
C720        C724   1.546       .  S
C720        C722   1.554       .  S
C720        H726   1.106       .  S
C721        H727   1.082       .  S
C723        H728   1.084       .  S
C724        C773   1.493       .  S
C729        C730   1.410       .  A
C729        C734   1.400       .  A
C729        F736   1.358       .  S
C730        C731   1.409       .  A
C731        C732   1.401       .  A
C731        F738   1.358       .  S
C732        C733   1.415       .  A
C733        C734   1.412       .  A
C734        F735   1.358       .  S
C739        C740   1.410       .  A
C739        C744   1.406       .  A
C739        F746   1.355       .  S
C740        C741   1.408       .  A
C741        C742   1.395       .  A
C742        C743   1.408       .  A
C742        F747   1.358       .  S
C743        C744   1.410       .  A
C744        F745   1.358       .  S
C749        C750   1.398       .  A
C749        C754   1.393       .  A
C750        C751   1.404       .  A
C751        C752   1.403       .  A
C751        F758   1.358       .  S
C752        C753   1.408       .  A
C752        F757   1.358       .  S
C753        C754   1.411       .  A
C754        F755   1.358       .  S
C759        C760   1.411       .  A
C759        C764   1.398       .  A
C760        C761   1.413       .  A
C761        C762   1.399       .  A
C761        F768   1.358       .  S
C762        C763   1.407       .  A
C762        F767   1.357       .  S
C763        C764   1.412       .  A
C764        F765   1.358       .  S
C769        C770   1.409       .  A
C769        C774   1.401       .  A
C769        F776   1.358       .  S
C770        C771   1.414       .  A
C771        C772   1.402       .  A
C771        F778   1.358       .  S
C772        C773   1.405       .  A
C772        F777   1.357       .  S
C773        C774   1.409       .  A
C779        C780   1.405       .  A
C779        C784   1.389       .  A
C780        C781   1.409       .  A
C781        C782   1.408       .  A
C781        F788   1.357       .  S
C782        C783   1.405       .  A
C782        F787   1.357       .  S
C783        C784   1.402       .  A
C784        F785   1.358       .  S
C789        C790   1.407       .  A
C789        C794   1.401       .  A
C790        C791   1.409       .  A
C791        C792   1.395       .  A
C792        C793   1.407       .  A
C792        F797   1.358       .  S
C793        C794   1.410       .  A
C794        F795   1.358       .  S
C799        C800   1.406       .  A
C799        C804   1.406       .  A
C800        C801   1.403       .  A
C801        C802   1.398       .  A
C801        F808   1.358       .  S
C802        C803   1.407       .  A
C802        F807   1.358       .  S
C803        C804   1.407       .  A
C804        F805   1.357       .  S
C809        C810   1.411       .  A
C809        C814   1.399       .  A
C810        C811   1.414       .  A
C811        C812   1.401       .  A
C811        F818   1.358       .  S
C812        C813   1.408       .  A
C812        F817   1.357       .  S
C813        C814   1.412       .  A
C814        F815   1.358       .  S
C819        C820   1.405       .  A
C819        C824   1.402       .  A
C820        C821   1.401       .  A
C821        C822   1.397       .  A
C822        C823   1.411       .  A
C822        F827   1.358       .  S
C823        C824   1.409       .  A
C824        F825   1.358       .  S
C829        C830   1.409       .  A
C829        C834   1.403       .  A
C829        F836   1.358       .  S
C830        C831   1.407       .  A
C831        C832   1.397       .  A
C831        F838   1.358       .  S
C832        C833   1.412       .  A
C833        C834   1.410       .  A
C834        F835   1.353       .  S
C839        C840   1.410       .  A
C839        C844   1.399       .  A
C839        F846   1.358       .  S
C840        C841   1.409       .  A
C841        C842   1.400       .  A
C841        F848   1.358       .  S
C842        C843   1.415       .  A
C843        C844   1.411       .  A
C844        F845   1.358       .  S
