geometry optimzed in LAMMPS
_audit_creation_date              2020-11-30 
_audit_creation_method            'lammps2cif' 
_symmetry_space_group_name_H-M    'P1' 
_symmetry_Int_Tables_number       1 
_symmetry_cell_setting            triclinic 
loop_ 
_symmetry_equiv_pos_as_xyz 
  x,y,z 
_cell_length_a                    23.729988265183618 
_cell_length_b                    23.61283413806415 
_cell_length_c                    23.824180637558833 
_cell_angle_alpha                 89.0578309398366 
_cell_angle_beta                  89.75962130191253 
_cell_angle_gamma                 90.41172564343613 
loop_ 
_atom_site_label 
_atom_site_type_symbol 
_atom_site_fract_x 
_atom_site_fract_y 
_atom_site_fract_z 
_atom_site_charge 
C1          C  0.87057113  0.26262894  0.50084752     0.03370
C2          C  0.86792463  0.49974849  0.25008526     0.03370
C3          C  0.89050645  0.51520112  0.75705555     0.03370
C4          C  0.89347560  0.79078021  0.48440086     0.03370
O5          O  0.87387890  0.42681829  0.48807383    -0.67090
O6          O  0.91229339  0.58940037  0.47072543    -0.68070
O7          O  0.91766614  0.50881603  0.55771680    -0.56680
O8          O  0.86724028  0.50785274  0.40050773    -0.65100
O9          O  0.78034148  0.53204460  0.42534677    -0.64650
O10         O  0.83105743  0.53132390  0.58521144    -0.55900
O11         O  0.82625697  0.61471750  0.49708454    -0.68410
O12         O  0.78715356  0.44793366  0.51609108    -0.67190
Cu13       Cu  0.89549033  0.50747542  0.47807130     1.04560
Cu14       Cu  0.80279140  0.53228851  0.50663153     1.04330
C15         C  0.82596714  0.41164082  0.50775922     0.99110
C16         C  0.87641251  0.62766564  0.48132641     0.98250
C17         C  0.88206417  0.51879792  0.59636152     0.90400
C18         C  0.81681532  0.52113459  0.38766375     0.96670
C19         C  0.25786946  0.89245828  0.48990151     0.03370
C20         C  0.48110308  0.89507555  0.24093526     0.03370
C21         C  0.49881054  0.88449141  0.74681377     0.03370
C22         C  0.74894450  0.87934467  0.50937255     0.03370
O23         O  0.42807005  0.82764406  0.48728047    -0.67090
O24         O  0.58598288  0.77819885  0.49456365    -0.68070
O25         O  0.50771675  0.82066264  0.57334703    -0.56680
O26         O  0.50524569  0.78797768  0.40747768    -0.65100
O27         O  0.53928806  0.87496775  0.39220483    -0.64650
O28         O  0.53581401  0.90857276  0.55216067    -0.55900
O29         O  0.61797613  0.86590758  0.48085866    -0.68410
O30         O  0.45800665  0.91519537  0.46710751    -0.67190
Cu31       Cu  0.50611315  0.80019127  0.49112818     1.04560
Cu32       Cu  0.53906110  0.89399435  0.47206550     1.04330
C33         C  0.41823681  0.87972858  0.47737310     0.99110
C34         C  0.62666672  0.81359694  0.49153925     0.98250
C35         C  0.51987785  0.87126604  0.58785261     0.90400
C36         C  0.52048804  0.82811965  0.37403725     0.96670
C37         C  0.49796663  0.25989227  0.87264904     0.03370
C38         C  0.24507583  0.50739983  0.88223929     0.03370
C39         C  0.74566450  0.51671983  0.86234248     0.03370
C40         C  0.49984151  0.76000745  0.87445707     0.03370
O41         O  0.40646243  0.52372444  0.75698797    -0.67090
O42         O  0.57580186  0.49363616  0.75609703    -0.68070
O43         O  0.47490034  0.42437737  0.75705593    -0.56680
O44         O  0.50490334  0.59278995  0.75357919    -0.65100
O45         O  0.50696174  0.58766178  0.84649977    -0.64650
O46         O  0.47659244  0.42522262  0.85042573    -0.55900
O47         O  0.57424765  0.49199349  0.84935604    -0.68410
O48         O  0.41097425  0.52139258  0.85015500    -0.67190
Cu49       Cu  0.49075773  0.50851682  0.75221769     1.04560
Cu50       Cu  0.49236089  0.50662749  0.85194726     1.04330
C51         C  0.38263237  0.52675234  0.80512054     0.99110
C52         C  0.60123553  0.48852621  0.80329533     0.98250
C53         C  0.47063791  0.39888018  0.80458628     0.90400
C54         C  0.50817990  0.61686133  0.80096428     0.96670
C55         C  0.36814170  0.99864507  0.74885441     0.03370
C56         C  0.37236162  0.75850375  0.99131982     0.03370
C57         C  0.37963460  0.26650734  0.99942838     0.03370
C58         C  0.37530084  0.03293282  0.25191372     0.03370
O59         O  0.39658290  0.06745574  0.01672941    -0.67090
O60         O  0.35673072  0.90774222  0.03145350    -0.68070
O61         O  0.39321005  0.97789632  0.94494478    -0.56680
O62         O  0.35904545  0.99648850  0.10263131    -0.65100
O63         O  0.26860655  0.01416410  0.08557981    -0.64650
O64         O  0.30513667  0.99987496  0.92185606    -0.55900
O65         O  0.26738842  0.92394212  0.00838546    -0.68410
O66         O  0.30777460  0.09092137  0.99890689    -0.67190
Cu67       Cu  0.37902075  0.98676126  0.02474858     1.04560
Cu68       Cu  0.28350876  0.00805361  0.00292989     1.04330
C69         C  0.35969984  0.10454315  0.00523707     0.99110
C70         C  0.30716049  0.89000594  0.02137215     0.98250
C71         C  0.35549038  0.98677352  0.90826605     0.90400
C72         C  0.30944968  0.00749568  0.11958022     0.96670
C73         C  0.00279278  0.65017301  0.74452202     0.03370
C74         C  0.74566694  0.63781836  0.98620289     0.03370
C75         C  0.26265480  0.62105121  0.00982605     0.03370
C76         C  0.98755293  0.62478873  0.26676844     0.03370
O77         O  0.06391614  0.59939735  0.99446285    -0.67090
O78         O  0.90571299  0.64381347  0.98484053    -0.68070
O79         O  0.99610307  0.64004805  0.90860514    -0.56680
O80         O  0.97443546  0.60360523  0.06910286    -0.65100
O81         O  0.99826676  0.69116896  0.09322335    -0.64650
O82         O  0.01918945  0.72884213  0.92881360    -0.55900
O83         O  0.92552925  0.73210554  0.00945809    -0.68410
O84         O  0.08928736  0.68745562  0.01524140    -0.67190
Cu85       Cu  0.98405718  0.61905483  0.98835121     1.04560
Cu86       Cu  0.00872573  0.71350587  0.01217120     1.04330
C87         C  0.10162942  0.63575071  0.00629453     0.99110
C88         C  0.88975861  0.69321399  0.99837801     0.98250
C89         C  0.01352706  0.68913430  0.89338353     0.90400
C90         C  0.98321854  0.64062988  0.10635582     0.96670
C91         C  0.62651215  0.76462828  0.99187751     0.03370
C92         C  0.61249514  0.01819532  0.74798648     0.03370
C93         C  0.62313620  0.26809256  0.99214865     0.03370
C94         C  0.61547245  0.00630430  0.25349884     0.03370
O95         O  0.70105298  0.09718646  0.98843896    -0.67090
O96         O  0.73903714  0.93078577  0.01063546    -0.68070
O97         O  0.71982358  0.00341526  0.91565629    -0.56680
O98         O  0.72474251  0.02662227  0.08212616    -0.65100
O99         O  0.63325840  0.00573229  0.08626480    -0.64650
O100        O  0.62843787  0.98247222  0.92168065    -0.55900
O101        O  0.64654283  0.91573455  0.01680753    -0.68410
O102        O  0.61074173  0.07130912  0.99290676    -0.67190
Cu103      Cu  0.72492946  0.01526321  0.99895112     1.04560
Cu104      Cu  0.62699869  0.99309056  0.00462282     1.04330
C105        C  0.64846150  0.10916190  0.98837696     0.99110
C106        C  0.69658720  0.89734064  0.01626444     0.98250
C107        C  0.67328585  0.99007812  0.89258158     0.90400
C108        C  0.67931108  0.01982494  0.11014344     0.96670
C109        C  0.24215298  0.49552793  0.13262204     0.03370
C110        C  0.50506423  0.26725739  0.11831252     0.03370
C111        C  0.49838821  0.78071069  0.10759280     0.03370
C112        C  0.76005114  0.51799559  0.11440675     0.03370
O113        O  0.39933406  0.52120008  0.15257229    -0.67090
O114        O  0.55844809  0.52604171  0.12209847    -0.68070
O115        O  0.48139859  0.44039698  0.14161545    -0.56680
O116        O  0.47766936  0.60689948  0.13887035    -0.65100
O117        O  0.49578297  0.60984954  0.23002413    -0.64650
O118        O  0.49664706  0.43876511  0.23341314    -0.55900
O119        O  0.58047959  0.52502942  0.21266100    -0.68410
O120        O  0.41036149  0.52349211  0.24503010    -0.67190
Cu121      Cu  0.47853402  0.52366817  0.13623089     1.04560
Cu122      Cu  0.49637069  0.52435812  0.23416527     1.04330
C123        C  0.37858730  0.52104660  0.20167057     0.99110
C124        C  0.59495701  0.52579042  0.16050954     0.98250
C125        C  0.49073114  0.41284701  0.18723312     0.90400
C126        C  0.48754775  0.63516408  0.18311041     0.96670
C127        C  0.74234026  0.39738215  0.99036759     0.03370
C128        C  0.02115563  0.40095389  0.73990219     0.03370
C129        C  0.24853671  0.38090501  0.00331009     0.03370
C130        C  0.99535950  0.38176996  0.25541323     0.03370
O131        O  0.07352364  0.28405381  0.01041606    -0.67090
O132        O  0.91070527  0.31813233  0.98618415    -0.68070
O133        O  0.99869294  0.28819377  0.91298183    -0.56680
O134        O  0.98517869  0.31721212  0.08051420    -0.65100
O135        O  0.99894401  0.40843880  0.05954135    -0.64650
O136        O  0.02769226  0.37739806  0.90313468    -0.55900
O137        O  0.93445667  0.40684425  0.96284044    -0.68410
O138        O  0.09147046  0.37636505  0.00036849    -0.67190
Cu139      Cu  0.99131838  0.29800507  0.99801377     1.04560
Cu140      Cu  0.01390307  0.39493737  0.98098647     1.04330
C141        C  0.10732027  0.32617094  0.01225649     0.99110
C142        C  0.89771977  0.36773695  0.96885302     0.98250
C143        C  0.01403438  0.33032253  0.88173926     0.90400
C144        C  0.99054465  0.36887360  0.09528194     0.96670
C145        C  0.73990825  0.00814072  0.62397726     0.03370
C146        C  0.01232757  0.76896134  0.61078795     0.03370
C147        C  0.98974881  0.26895866  0.62727508     0.03370
C148        C  0.24801698  0.00405644  0.61965717     0.03370
O149        O  0.91094601  0.02897013  0.64452433    -0.67090
O150        O  0.07536171  0.01371560  0.64694416    -0.68070
O151        O  0.98648664  0.93853350  0.64011301    -0.56680
O152        O  0.00153198  0.10393594  0.65015644    -0.65100
O153        O  0.00502914  0.09986863  0.74335591    -0.64650
O154        O  0.98129503  0.92957293  0.73297941    -0.55900
O155        O  0.07726619  0.00393593  0.73959271    -0.68410
O156        O  0.90787108  0.02718202  0.73779223    -0.67190
Cu157      Cu  0.99352000  0.02150983  0.64259107     1.04560
Cu158      Cu  0.99257063  0.01478229  0.74211670     1.04330
C159        C  0.88315001  0.03132122  0.69030940     0.99110
C160        C  0.10284629  0.00608768  0.69231786     0.98250
C161        C  0.98278413  0.90754681  0.68422166     0.90400
C162        C  0.00645950  0.12828894  0.69723862     0.96670
C163        C  0.11684502  0.25282477  0.51032003     0.03370
C164        C  0.11551047  0.50847119  0.25533586     0.03370
C165        C  0.13268456  0.53319956  0.75465951     0.03370
C166        C  0.13162524  0.76788246  0.48336364     0.03370
O167        O  0.18410274  0.42608919  0.51064099    -0.67090
O168        O  0.22507059  0.59178263  0.50623497    -0.68070
O169        O  0.22683147  0.50417840  0.58872260    -0.56680
O170        O  0.18389963  0.51136226  0.42746404    -0.65100
O171        O  0.09635530  0.53099871  0.45417340    -0.64650
O172        O  0.13976313  0.52585162  0.61526064    -0.55900
O173        O  0.13675096  0.60950267  0.53196941    -0.68410
O174        O  0.09745937  0.44955932  0.53745858    -0.67190
Cu175      Cu  0.20841714  0.50759918  0.50755034     1.04560
Cu176      Cu  0.11475881  0.52979931  0.53563175     1.04330
C177        C  0.13324592  0.41276530  0.52334511     0.99110
C178        C  0.18596814  0.62653351  0.51831580     0.98250
C179        C  0.19096283  0.51474021  0.62710449     0.90400
C180        C  0.13224459  0.51998886  0.41585517     0.96670
C181        C  0.24819342  0.13661277  0.50501494     0.03370
C182        C  0.51080242  0.14378899  0.24792200     0.03370
C183        C  0.48162391  0.13194984  0.75614247     0.03370
C184        C  0.76086945  0.12382134  0.49222570     0.03370
O185        O  0.44433275  0.11477457  0.52202122    -0.67090
O186        O  0.60461748  0.14410884  0.52776043    -0.68070
O187        O  0.51943110  0.14646667  0.60423313    -0.56680
O188        O  0.53014420  0.11377747  0.44481787    -0.65100
O189        O  0.51429298  0.20408858  0.42242230    -0.64650
O190        O  0.50598538  0.23837337  0.58725452    -0.55900
O191        O  0.59417316  0.23557163  0.50649913    -0.68410
O192        O  0.42546196  0.20530050  0.50361374    -0.67190
Cu193      Cu  0.52512504  0.12715997  0.52548282     1.04560
Cu194      Cu  0.50938079  0.22466082  0.50421995     1.04330
C195        C  0.40936261  0.15382434  0.51127771     0.99110
C196        C  0.62539397  0.19291576  0.51746500     0.98250
C197        C  0.51161284  0.19661110  0.62135101     0.90400
C198        C  0.52301489  0.15286700  0.40827046     0.96670
C199        C  0.00874917  0.76639931  0.36079181     0.03370
C200        C  0.73398282  0.99094245  0.38214500     0.03370
C201        C  0.25171139  0.02353611  0.37537743     0.03370
C202        C  0.99855490  0.26106747  0.38520178     0.03370
O203        O  0.05788393  0.98368910  0.39590291    -0.67090
O204        O  0.89722074  0.97841535  0.36484390    -0.68070
O205        O  0.98578231  0.90091272  0.35326922    -0.56680
O206        O  0.97168315  0.05966380  0.40647879    -0.65100
O207        O  0.99012089  0.09290630  0.32036293    -0.64650
O208        O  0.99617564  0.93646564  0.26697219    -0.55900
O209        O  0.90920052  0.01726457  0.28002073    -0.68410
O210        O  0.07654517  0.01494543  0.30911258    -0.67190
Cu211      Cu  0.97728569  0.97926392  0.38292083     1.04560
Cu212      Cu  0.99342122  0.01610636  0.29070532     1.04330
C213        C  0.09240857  0.00208706  0.35893230     0.99110
C214        C  0.87700535  0.99890930  0.31942541     0.98250
C215        C  0.99403925  0.89419178  0.30090447     0.90400
C216        C  0.98109510  0.10087214  0.37230243     0.96670
C217        C  0.99240814  0.20350814  0.36017939    -0.10570
C218        C  0.98401445  0.15779768  0.39386069    -0.25750
H219        H  0.99466656  0.19901597  0.31484357     0.18450
H220        H  0.98123336  0.16240563  0.43913899     0.19020
C221        C  0.19548147  0.02035358  0.34595913    -0.10570
C222        C  0.14962488  0.01067962  0.37806488    -0.25750
H223        H  0.19239090  0.02310370  0.30048603     0.18450
H224        H  0.15457184  0.00750698  0.42343634     0.19020
C225        C  0.78508631  0.97116782  0.35070258    -0.10570
C226        C  0.81574603  0.00493105  0.31646022    -0.25750
H227        H  0.80381699  0.93100392  0.36388725     0.18450
H228        H  0.79861028  0.04417823  0.29960399     0.19020
C229        C  0.02559320  0.79336212  0.30470160    -0.10570
C230        C  0.00681332  0.83918556  0.27709283    -0.25750
H231        H  0.05275772  0.76700792  0.27901555     0.18450
H232        H  0.01734144  0.84133369  0.23259834     0.19020
C233        C  0.76369370  0.08032225  0.44713644    -0.07410
C234        C  0.75042720  0.04212262  0.41537176    -0.08970
C235        C  0.70855778  0.15715527  0.47967129    -0.10570
C236        C  0.68647723  0.19542129  0.51423547    -0.25750
H237        H  0.68232201  0.14355618  0.44467425     0.18090
H238        H  0.70997159  0.21105177  0.54987152     0.19020
C239        C  0.50669556  0.20296410  0.68160007    -0.10570
C240        C  0.46871243  0.16805914  0.70543487    -0.25750
H241        H  0.54416680  0.21560546  0.70437753     0.18450
H242        H  0.43182289  0.15693666  0.68045520     0.19020
C243        C  0.51803759  0.17007589  0.30494191    -0.10570
C244        C  0.52255480  0.13545799  0.35008029    -0.25750
H245        H  0.51771857  0.21579634  0.30965399     0.18450
H246        H  0.52323665  0.08987261  0.34412526     0.19020
C247        C  0.24618704  0.10420525  0.45255445    -0.07410
C248        C  0.25081365  0.07150629  0.41427555    -0.08970
C249        C  0.30457189  0.16711704  0.50695366    -0.10570
C250        C  0.35113773  0.13506834  0.50626961    -0.25750
H251        H  0.30744225  0.21289742  0.51024024     0.18450
H252        H  0.34610094  0.08928194  0.50385242     0.19020
C253        C  0.09266594  0.77518947  0.43548678    -0.07410
C254        C  0.05730656  0.77045746  0.39915933    -0.08970
C255        C  0.16077162  0.71236291  0.47445133    -0.10570
C256        C  0.19367568  0.68754607  0.51296775    -0.25750
H257        H  0.14708162  0.68657899  0.43927668     0.18450
H258        H  0.20769046  0.71069880  0.54942743     0.19020
C259        C  0.18400118  0.55186957  0.72087769    -0.10570
C260        C  0.21163786  0.51983885  0.68441091    -0.25750
H261        H  0.20954383  0.58415145  0.74113603     0.18450
H262        H  0.25738594  0.52239365  0.68605407     0.19020
C263        C  0.14393813  0.51068861  0.31215175    -0.10570
C264        C  0.11149396  0.51491456  0.35866148    -0.25750
H265        H  0.18963164  0.51108700  0.31525609     0.18450
H266        H  0.06586064  0.51492622  0.35450705     0.19020
C267        C  0.16030393  0.20812542  0.50941268    -0.07410
C268        C  0.19971628  0.17563253  0.50774502    -0.08970
C269        C  0.08356798  0.25376505  0.45795121    -0.07410
C270        C  0.04923467  0.26054101  0.42098090    -0.08970
C271        C  0.14494702  0.30980938  0.51503588    -0.10570
C272        C  0.11239739  0.35550528  0.51952950    -0.25750
H273        H  0.19064881  0.31399522  0.51520324     0.18450
H274        H  0.06675015  0.35061758  0.52022242     0.19020
C275        C  0.24612483  0.09572340  0.55269337    -0.07410
C276        C  0.25078294  0.05716237  0.58645358    -0.08970
C277        C  0.18741486  0.99847132  0.63671624    -0.10570
C278        C  0.16476126  0.00131153  0.68834890    -0.25750
H279        H  0.15904504  0.99571805  0.60092112     0.18450
H280        H  0.19074513  0.00373706  0.72562801     0.19020
C281        C  0.03964940  0.25485668  0.59222320    -0.07410
C282        C  0.07705986  0.24602544  0.55844905    -0.08970
C283        C  0.97509238  0.21828981  0.66421477    -0.10570
C284        C  0.01261148  0.19009027  0.69578938    -0.25750
H285        H  0.93486336  0.19698208  0.65682049     0.18450
H286        H  0.05343641  0.20860138  0.70524597     0.19020
C287        C  0.09652448  0.76409858  0.53535017    -0.07410
C288        C  0.06182955  0.76144327  0.57317265    -0.08970
C289        C  0.02046324  0.82406138  0.64122779    -0.10570
C290        C  0.98216512  0.84591753  0.67661161    -0.25750
H291        H  0.05608364  0.85090428  0.62866202     0.18450
H292        H  0.94674863  0.82083341  0.69226231     0.19020
C293        C  0.74501824  0.05819088  0.58511442    -0.07410
C294        C  0.75325161  0.09182261  0.54640876    -0.08970
C295        C  0.79565431  0.99900119  0.65313811    -0.10570
C296        C  0.82167041  0.03641071  0.68600871    -0.25750
H297        H  0.81993179  0.96164045  0.64193639     0.18450
H298        H  0.80059523  0.07412735  0.70055383     0.19020
C299        C  0.00058271  0.30569752  0.34079669    -0.07410
C300        C  0.99814660  0.34031601  0.30261695    -0.08970
C301        C  0.04495553  0.41974514  0.25680692    -0.07410
C302        C  0.08027317  0.45685263  0.25410502    -0.08970
C303        C  0.99385254  0.35327579  0.19904328    -0.10570
C304        C  0.98882271  0.38661748  0.15316804    -0.25750
H305        H  0.99678256  0.30754088  0.19556819     0.18450
H306        H  0.98718579  0.43232178  0.15834459     0.19020
C307        C  0.20252512  0.33925609  0.98975603    -0.10570
C308        C  0.16587522  0.31926492  0.02768561    -0.25750
H309        H  0.18963578  0.33716532  0.94580890     0.18450
H310        H  0.17580646  0.31987008  0.07211889     0.19020
C311        C  0.00087060  0.32074813  0.66152990    -0.07410
C312        C  0.01089610  0.35976358  0.69348736    -0.08970
C313        C  0.10076442  0.48239996  0.73402861    -0.07410
C314        C  0.06637694  0.44413376  0.72710365    -0.08970
C315        C  0.04098493  0.36931955  0.79182792    -0.10570
C316        C  0.01077755  0.32954468  0.82004336    -0.25750
H317        H  0.07834351  0.38588597  0.81272310     0.18450
H318        H  0.97484064  0.30895649  0.80076354     0.19020
C319        C  0.84024251  0.38213364  0.95563103    -0.10570
C320        C  0.79708838  0.36528964  0.98852293    -0.25750
H321        H  0.83593599  0.41591602  0.92470603     0.18450
H322        H  0.80486354  0.33445479  0.02205202     0.19020
C323        C  0.75496554  0.46768182  0.07740808    -0.07410
C324        C  0.74582692  0.43366314  0.04060618    -0.08970
C325        C  0.70751498  0.52209216  0.15143689    -0.10570
C326        C  0.65367268  0.52596761  0.13867210    -0.25750
H327        H  0.67946561  0.52673771  0.10993939     0.18450
H328        H  0.67546090  0.52312325  0.18428198     0.19020
C329        C  0.49786786  0.71977761  0.12644351    -0.10570
C330        C  0.49094004  0.69752656  0.17817150    -0.25750
H331        H  0.50213811  0.69059436  0.09161837     0.18450
H332        H  0.48825804  0.72385749  0.21499279     0.19020
C333        C  0.50847728  0.18788470  0.20221845    -0.07410
C334        C  0.50617247  0.22441053  0.16533103    -0.08970
C335        C  0.50581141  0.32832816  0.13442733    -0.10570
C336        C  0.49599140  0.35066452  0.18487060    -0.25750
H337        H  0.51082013  0.35735978  0.09858892     0.18450
H338        H  0.49128058  0.32438674  0.22243474     0.19020
C339        C  0.19260809  0.50371927  0.17077952    -0.07410
C340        C  0.15682736  0.50813064  0.20760152    -0.08970
C341        C  0.23890949  0.41337477  0.05585637    -0.07410
C342        C  0.23390635  0.44770203  0.09327029    -0.08970
C343        C  0.29338464  0.48171663  0.16741553    -0.10570
C344        C  0.31699133  0.51747969  0.20423581    -0.25750
H345        H  0.31852354  0.44559596  0.15449937     0.18450
H346        H  0.29390242  0.55350766  0.21991177     0.19020
C347        C  0.68715415  0.00144741  0.34169265    -0.07410
C348        C  0.65307738  0.00547308  0.30357474    -0.08970
C349        C  0.58747620  0.06190618  0.24515940    -0.07410
C350        C  0.55728184  0.10296118  0.23953094    -0.08970
C351        C  0.64739415  0.99097981  0.20122117    -0.10570
C352        C  0.67838325  0.02784169  0.17085567    -0.25750
H353        H  0.63639757  0.95113752  0.18111806     0.18450
H354        H  0.69242829  0.06787839  0.18792673     0.19020
C355        C  0.66081564  0.31811454  0.99290802    -0.07410
C356        C  0.69531846  0.35620731  0.99367809    -0.08970
C357        C  0.55406232  0.26097968  0.08107582    -0.07410
C358        C  0.58849285  0.26550946  0.04370293    -0.08970
C359        C  0.65634783  0.21407191  0.98909744    -0.10570
C360        C  0.62684088  0.16590421  0.98522181    -0.25750
H361        H  0.70211490  0.21386972  0.99110981     0.18450
H362        H  0.58099715  0.16798289  0.98391890     0.19020
C363        C  0.65541886  0.01632847  0.70145791    -0.07410
C364        C  0.69229632  0.01333909  0.66538357    -0.08970
C365        C  0.53395175  0.09903895  0.74641573    -0.07410
C366        C  0.57206123  0.06540361  0.74050668    -0.08970
C367        C  0.63986344  0.02669576  0.80441875    -0.10570
C368        C  0.66947174  0.98660712  0.83143224    -0.25750
H369        H  0.62875292  0.06430015  0.82798827     0.18450
H370        H  0.68120865  0.94768608  0.81088286     0.19020
C371        C  0.59072768  0.77725212  0.04199071    -0.07410
C372        C  0.55166098  0.78632606  0.07424124    -0.08970
C373        C  0.70078061  0.83594603  0.01681719    -0.10570
C374        C  0.66705756  0.81219568  0.97855074    -0.25750
H375        H  0.70885105  0.81453869  0.05663271     0.18450
H376        H  0.66052554  0.83597553  0.93935812     0.19020
C377        C  0.99114578  0.66597587  0.31376421    -0.07410
C378        C  0.99674084  0.70656883  0.34462522    -0.08970
C379        C  0.03925026  0.59022947  0.26291360    -0.07410
C380        C  0.07689389  0.55737838  0.25265146    -0.08970
C381        C  0.97806048  0.62157423  0.16433745    -0.10570
C382        C  0.98298557  0.65421795  0.21002368    -0.25750
H383        H  0.97361528  0.57591288  0.16986650     0.18450
H384        H  0.98698275  0.69999083  0.20583547     0.19020
C385        C  0.25503166  0.54645416  0.09648341    -0.07410
C386        C  0.26511614  0.58219405  0.06002664    -0.08970
C387        C  0.20539769  0.64869906  0.01092104    -0.10570
C388        C  0.15918404  0.61545427  0.00934790    -0.25750
H389        H  0.20150763  0.69455289  0.01160051     0.18450
H390        H  0.16409326  0.56970775  0.00770130     0.19020
C391        C  0.69564489  0.67487512  0.99357633    -0.07410
C392        C  0.65962353  0.71138043  0.99624749    -0.08970
C393        C  0.75752911  0.60334370  0.03805751    -0.07410
C394        C  0.76488797  0.56899477  0.07616926    -0.08970
C395        C  0.79654837  0.67288863  0.96875250    -0.10570
C396        C  0.82885963  0.70169328  0.00438160    -0.25750
H397        H  0.81551160  0.66436655  0.92787665     0.18450
H398        H  0.81273850  0.71376233  0.04516859     0.19020
C399        C  0.00531054  0.72032052  0.65226503    -0.07410
C400        C  0.00231363  0.68570328  0.69136428    -0.08970
C401        C  0.09257206  0.58119150  0.75456851    -0.07410
C402        C  0.05544732  0.61618703  0.74899533    -0.08970
C403        C  0.99302582  0.68791023  0.79459671    -0.10570
C404        C  0.03122515  0.69679088  0.83479124    -0.25750
H405        H  0.94926685  0.69736387  0.80473223     0.18450
H406        H  0.07562402  0.68990206  0.82640403     0.19020
C407        C  0.33733306  0.03087081  0.30126398    -0.07410
C408        C  0.29971688  0.02855729  0.33586871    -0.08970
C409        C  0.45802775  0.11021698  0.25036032    -0.07410
C410        C  0.41945407  0.07681187  0.25656024    -0.08970
C411        C  0.34141886  0.04900212  0.20132710    -0.10570
C412        C  0.30286718  0.01442119  0.17944089    -0.25750
H413        H  0.35654298  0.08434335  0.17497462     0.18450
H414        H  0.28589439  0.97887349  0.20376834     0.19020
C415        C  0.30187795  0.34884682  0.00425659    -0.07410
C416        C  0.33925215  0.31398109  0.00258218    -0.08970
C417        C  0.45434216  0.26184825  0.08340344    -0.07410
C418        C  0.41784194  0.26663747  0.04830004    -0.08970
C419        C  0.34941911  0.20972398  0.99952811    -0.10570
C420        C  0.38062758  0.16249014  0.99881896    -0.25750
H421        H  0.30374474  0.20700477  0.00259268     0.18450
H422        H  0.42630735  0.16674114  0.99671263     0.19020
C423        C  0.30831255  0.66473668  0.00864256    -0.07410
C424        C  0.34093179  0.70451929  0.00223859    -0.08970
C425        C  0.41026426  0.77372541  0.03829808    -0.07410
C426        C  0.44874296  0.78398698  0.07021155    -0.08970
C427        C  0.30036352  0.82893140  0.01979346    -0.10570
C428        C  0.33117211  0.80533197  0.97933483    -0.25750
H429        H  0.29534658  0.80688829  0.05990426     0.18450
H430        H  0.33615172  0.82918789  0.93991615     0.19020
C431        C  0.29007594  0.00358573  0.66613683    -0.07410
C432        C  0.32558634  0.00209139  0.70303905    -0.08970
C433        C  0.43541133  0.08975482  0.76025696    -0.07410
C434        C  0.40234979  0.05131842  0.75201457    -0.08970
C435        C  0.34030649  0.99107388  0.80546579    -0.10570
C436        C  0.37368814  0.98447430  0.85042122    -0.25750
H437        H  0.29482382  0.99398898  0.81021359     0.18450
H438        H  0.41904346  0.98116143  0.84446898     0.19020
C439        C  0.58626970  0.76286579  0.94514084    -0.07410
C440        C  0.54868269  0.76727005  0.91129753    -0.08970
C441        C  0.44810311  0.76159280  0.90863857    -0.07410
C442        C  0.41025549  0.75555058  0.94244357    -0.08970
C443        C  0.50401143  0.70003194  0.85682558    -0.10570
C444        C  0.50970284  0.67902576  0.80519249    -0.25750
H445        H  0.50222546  0.67065099  0.89265658     0.18450
H446        H  0.51167605  0.70614800  0.76799438     0.19020
C447        C  0.73526709  0.43391241  0.93970234    -0.07410
C448        C  0.73925568  0.46699491  0.90041214    -0.08970
C449        C  0.74335115  0.56458242  0.90162540    -0.07410
C450        C  0.73778876  0.59791679  0.93953261    -0.08970
C451        C  0.69523483  0.52302496  0.82331751    -0.10570
C452        C  0.66247111  0.47951136  0.80694816    -0.25750
H453        H  0.67741533  0.56528739  0.81890724     0.18450
H454        H  0.67678515  0.43624172  0.81274516     0.19020
C455        C  0.15706495  0.52138950  0.81146309    -0.07410
C456        C  0.19284390  0.51457084  0.84780528    -0.08970
C457        C  0.25664981  0.55627172  0.91863305    -0.07410
C458        C  0.26506706  0.58769697  0.95759848    -0.08970
C459        C  0.24047988  0.45903516  0.92145287    -0.07410
C460        C  0.24749973  0.42306441  0.95730623    -0.08970
C461        C  0.29594093  0.49559898  0.84597795    -0.10570
C462        C  0.32150325  0.53347113  0.81163807    -0.25750
H463        H  0.31846459  0.45609716  0.85406073     0.18450
H464        H  0.30198716  0.57358552  0.80074365     0.19020
C465        C  0.48677992  0.16897509  0.80602549    -0.07410
C466        C  0.49253714  0.20704886  0.83961628    -0.08970
C467        C  0.54778132  0.26043040  0.90948940    -0.07410
C468        C  0.58434487  0.26960385  0.94362475    -0.08970
C469        C  0.41443672  0.27140152  0.94781009    -0.07410
C470        C  0.44884629  0.26711151  0.91037562    -0.08970
C471        C  0.50571333  0.31021315  0.83370611    -0.10570
C472        C  0.46330507  0.33767136  0.80883887    -0.25750
H473        H  0.54656355  0.33194233  0.83400850     0.18450
H474        H  0.42105883  0.31972915  0.80808424     0.19020
C475        C  0.72604660  0.90815190  0.45877307    -0.07410
C476        C  0.71979222  0.94433328  0.42244118    -0.08970
C477        C  0.74077287  0.91961581  0.55556002    -0.07410
C478        C  0.73300270  0.95788352  0.58814077    -0.08970
C479        C  0.72495740  0.82198451  0.52715608    -0.10570
C480        C  0.68214110  0.79180057  0.50647810    -0.25750
H481        H  0.75169402  0.79790347  0.55590433     0.18450
H482        H  0.68199040  0.74695796  0.51776664     0.19020
C483        C  0.49808127  0.84088714  0.79260626    -0.07410
C484        C  0.49890711  0.80383503  0.82878499    -0.08970
C485        C  0.57845402  0.96528390  0.75123314    -0.07410
C486        C  0.54537513  0.92589323  0.75476558    -0.08970
C487        C  0.44540898  0.91676171  0.74469637    -0.07410
C488        C  0.40722376  0.95057301  0.74076007    -0.08970
C489        C  0.50689334  0.85706354  0.69058778    -0.10570
C490        C  0.51306263  0.89052548  0.64497308    -0.25750
H491        H  0.50808846  0.81122486  0.68699650     0.18450
H492        H  0.51289087  0.93629262  0.64974125     0.19020
C493        C  0.48728637  0.85810954  0.19061687    -0.07410
C494        C  0.49358089  0.82364670  0.15321507    -0.08970
C495        C  0.53224047  0.92989761  0.25020475    -0.07410
C496        C  0.57030834  0.96316295  0.25864580    -0.08970
C497        C  0.43435867  0.93668927  0.23652712    -0.07410
C498        C  0.40405092  0.97764705  0.24295959    -0.08970
C499        C  0.47170693  0.85884471  0.29289557    -0.10570
C500        C  0.51203260  0.82481231  0.31369140    -0.25750
H501        H  0.43647847  0.86940232  0.32028066     0.18450
H502        H  0.54852508  0.81497262  0.28805323     0.19020
C503        C  0.21138943  0.84993648  0.48834444    -0.07410
C504        C  0.17383693  0.81462840  0.48601815    -0.08970
C505        C  0.25768863  0.95734043  0.58083324    -0.07410
C506        C  0.25633749  0.92448967  0.54245259    -0.08970
C507        C  0.25267347  0.93292221  0.44290558    -0.07410
C508        C  0.25693581  0.97141905  0.40931975    -0.08970
C509        C  0.31524510  0.86626132  0.48505493    -0.10570
C510        C  0.36096442  0.90042023  0.48030912    -0.25750
H511        H  0.31954761  0.82044805  0.48476169     0.18450
H512        H  0.35605389  0.94619893  0.47981783     0.19020
C513        C  0.85123037  0.83698960  0.49081526    -0.07410
C514        C  0.80948221  0.86599497  0.49857427    -0.08970
C515        C  0.92736415  0.79799196  0.43148453    -0.07410
C516        C  0.95991556  0.78944438  0.39263254    -0.08970
C517        C  0.93117206  0.78796853  0.53429139    -0.07410
C518        C  0.96369175  0.77693882  0.57234654    -0.08970
C519        C  0.86447211  0.73313683  0.48254730    -0.10570
C520        C  0.89626250  0.68642858  0.47671118    -0.25750
H521        H  0.81912084  0.72922795  0.48829890     0.18450
H522        H  0.94145041  0.69160234  0.47034428     0.19020
C523        C  0.84317921  0.51445226  0.79995299    -0.07410
C524        C  0.80056498  0.51539797  0.82976337    -0.08970
C525        C  0.93032237  0.46630444  0.76254884    -0.07410
C526        C  0.96872541  0.43307230  0.75399348    -0.08970
C527        C  0.92405412  0.56860765  0.75827760    -0.07410
C528        C  0.95650927  0.60766666  0.74816858    -0.08970
C529        C  0.86630548  0.51362006  0.69865088    -0.10570
C530        C  0.90132759  0.51561815  0.65397234    -0.25750
H531        H  0.82089056  0.51291363  0.69260127     0.18450
H532        H  0.94671901  0.51498762  0.66017512     0.19020
C533        C  0.83950600  0.50666119  0.19446743    -0.07410
C534        C  0.80853867  0.51238785  0.15384380    -0.08970
C535        C  0.94452430  0.41742061  0.25890930    -0.07410
C536        C  0.90794189  0.45220650  0.25125011    -0.08970
C537        C  0.90252741  0.55037255  0.26402922    -0.07410
C538        C  0.93802720  0.58640460  0.27302405    -0.08970
C539        C  0.82436509  0.48628631  0.29509126    -0.10570
C540        C  0.80327017  0.52633233  0.32804106    -0.25750
H541        H  0.82550809  0.44372334  0.31366437     0.18450
H542        H  0.79886619  0.56929303  0.31172820     0.19020
C543        C  0.80929055  0.16500066  0.49475711    -0.07410
C544        C  0.83966340  0.20696788  0.49908838    -0.08970
C545        C  0.90493534  0.26993187  0.55270818    -0.07410
C546        C  0.94131040  0.27603643  0.58821235    -0.08970
C547        C  0.91198842  0.26534629  0.45534722    -0.07410
C548        C  0.94943163  0.26948884  0.42132585    -0.08970
C549        C  0.83086468  0.31162285  0.48883031    -0.10570
C550        C  0.81919902  0.35217316  0.52576989    -0.25750
H551        H  0.82316069  0.32186838  0.44472961     0.18450
H552        H  0.82410504  0.34373457  0.57040989     0.19020
loop_ 
_geom_bond_atom_site_label_1 
_geom_bond_atom_site_label_2 
_geom_bond_distance 
_geom_bond_site_symmetry_2 
_ccdc_geom_bond_type 
C1          C544   1.502       .  S
C1          C545   1.495       .  S
C1          C547   1.460       .  S
C1          C549   1.522       .  S
C2          C533   1.496       .  S
C2          C536   1.476       .  S
C2          C537   1.488       .  S
C2          C539   1.515       .  S
C3          C523   1.515       .  S
C3          C525   1.502       .  S
C3          C527   1.487       .  S
C3          C529   1.508       .  S
C4          C513   1.496       .  S
C4          C515   1.499       .  S
C4          C517   1.491       .  S
C4          C519   1.522       .  S
O5          Cu13   1.979       .  S
O5           C15   1.275       .  A
O6          Cu13   1.977       .  S
O6           C16   1.274       .  A
O7          Cu13   1.972       .  S
O7           C17   1.273       .  A
O8          Cu13   1.968       .  S
O8           C18   1.276       .  A
O9          Cu14   2.011       .  S
O9           C18   1.275       .  A
O10         Cu14   1.991       .  S
O10          C17   1.276       .  A
O11         Cu14   2.030       .  S
O11          C16   1.280       .  A
O12         Cu14   2.032       .  S
O12          C15   1.280       .  A
Cu13        Cu14   2.380       .  S
C15         C550   1.469       .  S
C16         C520   1.464       .  S
C17         C530   1.449       .  S
C18         C540   1.461       .  S
C19         C503   1.487       .  S
C19         C506   1.474       .  S
C19         C507   1.466       .  S
C19         C509   1.504       .  S
C20         C493   1.502       .  S
C20         C495   1.480       .  S
C20         C497   1.490       .  S
C20         C499   1.508       .  S
C21         C483   1.488       .  S
C21         C486   1.485       .  S
C21         C487   1.484       .  S
C21         C489   1.510       .  S
C22         C475   1.482       .  S
C22         C477   1.479       .  S
C22         C514   1.495       .  S
C22         C479   1.519       .  S
O23         Cu31   1.969       .  S
O23          C33   1.272       .  A
O24         Cu31   1.970       .  S
O24          C34   1.273       .  A
O25         Cu31   2.026       .  S
O25          C35   1.281       .  A
O26         Cu31   2.019       .  S
O26          C36   1.277       .  A
O27         Cu32   1.962       .  S
O27          C36   1.273       .  A
O28         Cu32   1.946       .  S
O28          C35   1.269       .  A
O29         Cu32   2.002       .  S
O29          C34   1.275       .  A
O30         Cu32   1.994       .  S
O30          C33   1.277       .  A
Cu31        Cu32   2.380       .  S
C33         C510   1.449       .  S
C34         C480   1.460       .  S
C35         C490   1.451       .  S
C36         C500   1.456       .  S
C37         C466   1.491       .  S
C37         C467   1.475       .  S
C37         C470   1.481       .  S
C37         C471   1.505       .  S
C38         C456   1.498       .  S
C38         C457   1.480       .  S
C38         C459   1.467       .  S
C38         C461   1.512       .  S
C39         C448   1.478       .  S
C39         C449   1.480       .  S
C39         C524   1.514       .  S
C39         C451   1.525       .  S
C40         C440   1.468       .  S
C40         C441   1.471       .  S
C40         C484   1.490       .  S
C40         C443   1.488       .  S
O41         Cu49   2.038       .  S
O41          C51   1.280       .  A
O42         Cu49   2.053       .  S
O42          C52   1.283       .  A
O43         Cu49   2.021       .  S
O43          C53   1.277       .  A
O44         Cu49   2.016       .  S
O44          C54   1.275       .  A
O45         Cu50   1.944       .  S
O45          C54   1.276       .  A
O46         Cu50   1.957       .  S
O46          C53   1.274       .  A
O47         Cu50   1.977       .  S
O47          C52   1.272       .  A
O48         Cu50   1.966       .  S
O48          C51   1.274       .  A
Cu49        Cu50   2.376       .  S
C51         C462   1.468       .  S
C52         C452   1.473       .  S
C53         C472   1.456       .  S
C54         C444   1.473       .  S
C55         C432   1.492   1_565  S
C55         C434   1.483   1_565  S
C55         C488   1.485       .  S
C55         C435   1.507       .  S
C56         C424   1.491   1_556  S
C56         C425   1.486   1_556  S
C56         C442   1.471       .  S
C56         C428   1.506       .  S
C57         C416   1.483   1_556  S
C57         C418   1.479   1_556  S
C57         C469   1.481       .  S
C57         C419   1.516       .  S
C58         C407   1.478       .  S
C58         C410   1.474       .  S
C58         C498   1.495   1_545  S
C58         C411   1.497       .  S
O59         Cu67   1.954   1_545  S
O59          C69   1.270       .  A
O60         Cu67   1.940       .  S
O60          C70   1.271       .  A
O61         Cu67   1.944   1_556  S
O61          C71   1.270       .  A
O62         Cu67   1.931       .  S
O62          C72   1.273   1_565  A
O63         Cu68   2.007       .  S
O63          C72   1.275       .  A
O64         Cu68   2.009   1_566  S
O64          C71   1.278       .  A
O65         Cu68   2.022   1_565  S
O65          C70   1.278       .  A
O66         Cu68   2.036   1_556  S
O66          C69   1.281   1_556  A
Cu67        Cu68   2.383   1_565  S
C69         C420   1.458   1_554  S
C70         C427   1.451       .  S
C71         C436   1.444       .  S
C72         C412   1.446       .  S
C73         C400   1.508       .  S
C73         C402   1.493       .  S
C73         C528   1.484   1_455  S
C73         C403   1.519   1_455  S
C74         C391   1.491       .  S
C74         C393   1.497   1_556  S
C74         C450   1.481       .  S
C74         C395   1.512       .  S
C75         C386   1.497       .  S
C75         C423   1.490       .  S
C75         C458   1.485   1_554  S
C75         C387   1.512       .  S
C76         C377   1.497       .  S
C76         C379   1.482   1_655  S
C76         C538   1.484       .  S
C76         C382   1.514       .  S
O77         Cu85   1.960   1_455  S
O77          C87   1.271   1_556  A
O78         Cu85   1.955       .  S
O78          C88   1.275       .  A
O79         Cu85   1.975       .  S
O79          C89   1.274   1_655  A
O80         Cu85   1.964   1_554  S
O80          C90   1.273       .  A
O81         Cu86   2.007   1_655  S
O81          C90   1.277       .  A
O82         Cu86   2.027   1_556  S
O82          C89   1.279       .  A
O83         Cu86   2.027   1_655  S
O83          C88   1.278   1_554  A
O84         Cu86   2.014       .  S
O84          C87   1.279       .  A
Cu85        Cu86   2.380   1_656  S
C87         C388   1.452       .  S
C88         C396   1.467   1_556  S
C89         C404   1.464       .  S
C90         C381   1.450       .  S
C91         C371   1.497   1_556  S
C91         C392   1.490       .  S
C91         C439   1.471       .  S
C91         C374   1.503       .  S
C92         C363   1.504       .  S
C92         C366   1.485       .  S
C92         C485   1.484   1_545  S
C92         C367   1.511       .  S
C93         C355   1.477       .  S
C93         C358   1.475   1_556  S
C93         C468   1.481       .  S
C93         C359   1.507       .  S
C94         C348   1.493       .  S
C94         C349   1.486       .  S
C94         C496   1.477   1_545  S
C94         C351   1.506   1_545  S
O95        Cu103   2.031       .  S
O95         C105   1.282       .  A
O96        Cu103   2.040   1_564  S
O96         C106   1.281       .  A
O97        Cu103   2.013       .  S
O97         C107   1.275   1_545  A
O98        Cu103   2.004   1_554  S
O98         C108   1.273       .  A
O99        Cu104   1.979   1_545  S
O99         C108   1.279       .  A
O100       Cu104   1.996   1_556  S
O100        C107   1.278       .  A
O101       Cu104   1.906       .  S
O101        C106   1.268       .  A
O102       Cu104   1.906   1_546  S
O102        C105   1.263       .  A
Cu103      Cu104   2.381   1_546  S
C105        C360   1.439       .  S
C106        C373   1.454       .  S
C107        C368   1.464       .  S
C108        C352   1.462       .  S
C109        C339   1.499       .  S
C109        C342   1.492       .  S
C109        C385   1.496       .  S
C109        C343   1.509       .  S
C110        C334   1.497       .  S
C110        C357   1.469       .  S
C110        C417   1.472       .  S
C110        C335   1.498       .  S
C111        C372   1.494       .  S
C111        C426   1.481       .  S
C111        C494   1.503       .  S
C111        C329   1.500       .  S
C112        C323   1.495       .  S
C112        C394   1.501       .  S
C112        C534   1.494       .  S
C112        C325   1.529       .  S
O113       Cu121   1.918       .  S
O113        C123   1.267       .  A
O114       Cu121   1.925       .  S
O114        C124   1.263       .  A
O115       Cu121   1.970       .  S
O115        C125   1.278       .  A
O116       Cu121   1.968       .  S
O116        C126   1.278       .  A
O117       Cu122   2.020       .  S
O117        C126   1.275       .  A
O118       Cu122   2.022       .  S
O118        C125   1.275       .  A
O119       Cu122   2.058       .  S
O119        C124   1.288       .  A
O120       Cu122   2.056       .  S
O120        C123   1.283       .  A
Cu121      Cu122   2.373       .  S
C123        C344   1.464       .  S
C124        C326   1.485       .  S
C125        C336   1.476       .  S
C126        C330   1.477       .  S
C127        C324   1.486   1_556  S
C127        C356   1.476       .  S
C127        C447   1.483       .  S
C127        C320   1.510       .  S
C128        C312   1.504       .  S
C128        C314   1.502       .  S
C128        C526   1.501   1_455  S
C128        C315   1.513       .  S
C129        C341   1.496       .  S
C129        C415   1.480       .  S
C129        C460   1.469   1_554  S
C129        C307   1.504   1_554  S
C130        C300   1.481       .  S
C130        C301   1.475   1_655  S
C130        C535   1.479       .  S
C130        C303   1.512       .  S
O131       Cu139   2.003   1_454  S
O131        C141   1.275       .  A
O132       Cu139   1.994       .  S
O132        C142   1.276       .  A
O133       Cu139   2.050       .  S
O133        C143   1.282   1_655  A
O134       Cu139   2.029   1_554  S
O134        C144   1.281       .  A
O135       Cu140   1.935   1_654  S
O135        C144   1.268       .  A
O136       Cu140   1.934       .  S
O136        C143   1.271       .  A
O137       Cu140   1.957   1_655  S
O137        C142   1.271       .  A
O138       Cu140   1.951   1_554  S
O138        C141   1.274       .  A
Cu139      Cu140   2.375   1_655  S
C141        C308   1.448       .  S
C142        C319   1.443       .  S
C143        C316   1.473       .  S
C144        C304   1.448       .  S
C145        C293   1.493       .  S
C145        C364   1.504       .  S
C145        C478   1.482   1_545  S
C145        C295   1.512   1_545  S
C146        C288   1.488       .  S
C146        C399   1.511       .  S
C146        C518   1.487   1_455  S
C146        C289   1.511       .  S
C147        C281   1.489   1_655  S
C147        C311   1.504   1_655  S
C147        C546   1.491       .  S
C147        C283   1.511       .  S
C148        C276   1.473       .  S
C148        C431   1.494       .  S
C148        C505   1.470   1_545  S
C148        C277   1.497   1_545  S
O149       Cu157   1.969       .  S
O149        C159   1.275       .  A
O150       Cu157   1.955   1_455  S
O150        C160   1.276       .  A
O151       Cu157   1.967   1_565  S
O151        C161   1.273       .  A
O152       Cu157   1.966   1_455  S
O152        C162   1.274       .  A
O153       Cu158   2.029   1_455  S
O153        C162   1.278       .  A
O154       Cu158   2.043   1_565  S
O154        C161   1.281       .  A
O155       Cu158   2.029   1_455  S
O155        C160   1.277       .  A
O156       Cu158   2.036       .  S
O156        C159   1.279       .  A
Cu157      Cu158   2.374       .  S
C159        C296   1.469       .  S
C160        C278   1.477       .  S
C161        C290   1.469       .  S
C162        C284   1.465       .  S
C163        C267   1.481       .  S
C163        C269   1.479       .  S
C163        C282   1.488       .  S
C163        C271   1.504       .  S
C164        C302   1.474       .  S
C164        C340   1.499       .  S
C164        C380   1.480       .  S
C164        C263   1.516       .  S
C165        C313   1.505       .  S
C165        C401   1.485       .  S
C165        C455   1.497       .  S
C165        C259   1.516       .  S
C166        C253   1.480       .  S
C166        C287   1.491       .  S
C166        C504   1.488       .  S
C166        C255   1.504       .  S
O167       Cu175   2.005       .  S
O167        C177   1.279       .  A
O168       Cu175   2.024       .  S
O168        C178   1.278       .  A
O169       Cu175   1.985       .  S
O169        C179   1.275       .  A
O170       Cu175   1.998       .  S
O170        C180   1.275       .  A
O171       Cu176   1.991       .  S
O171        C180   1.277       .  A
O172       Cu176   1.991       .  S
O172        C179   1.277       .  A
O173       Cu176   1.950       .  S
O173        C178   1.272       .  A
O174       Cu176   1.936       .  S
O174        C177   1.268       .  A
Cu175      Cu176   2.383       .  S
C177        C272   1.441       .  S
C178        C256   1.454       .  S
C179        C260   1.459       .  S
C180        C264   1.457       .  S
C181        C247   1.477       .  S
C181        C268   1.481       .  S
C181        C275   1.479       .  S
C181        C249   1.516       .  S
C182        C333   1.496       .  S
C182        C350   1.485       .  S
C182        C409   1.478       .  S
C182        C243   1.513       .  S
C183        C365   1.489       .  S
C183        C433   1.478       .  S
C183        C465   1.492       .  S
C183        C240   1.501       .  S
C184        C233   1.500       .  S
C184        C294   1.495       .  S
C184        C543   1.502       .  S
C184        C235   1.503       .  S
O185       Cu193   1.940       .  S
O185        C195   1.269       .  A
O186       Cu193   1.927       .  S
O186        C196   1.270       .  A
O187       Cu193   1.942       .  S
O187        C197   1.273       .  A
O188       Cu193   1.956       .  S
O188        C198   1.271       .  A
O189       Cu194   2.019       .  S
O189        C198   1.279       .  A
O190       Cu194   2.011       .  S
O190        C197   1.275       .  A
O191       Cu194   2.028       .  S
O191        C196   1.279       .  A
O192       Cu194   2.040       .  S
O192        C195   1.281       .  A
Cu193      Cu194   2.382       .  S
C195        C250   1.454       .  S
C196        C236   1.452       .  S
C197        C239   1.450       .  S
C198        C244   1.453       .  S
C199        C254   1.477       .  S
C199        C378   1.496   1_455  S
C199        C516   1.493   1_455  S
C199        C229   1.521       .  S
C200        C234   1.506   1_565  S
C200        C347   1.493   1_565  S
C200        C476   1.484       .  S
C200        C225   1.504       .  S
C201        C248   1.475       .  S
C201        C408   1.478       .  S
C201        C508   1.468   1_545  S
C201        C221   1.512       .  S
C202        C270   1.477   1_655  S
C202        C299   1.481   1_655  S
C202        C548   1.463       .  S
C202        C217   1.499       .  S
O203       Cu211   1.941   1_455  S
O203        C213   1.270   1_565  A
O204       Cu211   1.950       .  S
O204        C214   1.275       .  A
O205       Cu211   2.002       .  S
O205        C215   1.275       .  A
O206       Cu211   1.994   1_545  S
O206        C216   1.276       .  A
O207       Cu212   1.959       .  S
O207        C216   1.272       .  A
O208       Cu212   1.974   1_565  S
O208        C215   1.275       .  A
O209       Cu212   2.016       .  S
O209        C214   1.276   1_545  A
O210       Cu212   2.023   1_455  S
O210        C213   1.279       .  A
Cu211      Cu212   2.378   1_565  S
C213        C222   1.448       .  S
C214        C226   1.464   1_565  S
C215        C230   1.459   1_655  S
C216        C218   1.448       .  S
C217        C218   1.347       .  D
C217        H219   1.088       .  S
C218        H220   1.088       .  S
C221        C222   1.344       .  D
C221        H223   1.087       .  S
C222        H224   1.089       .  S
C225        C226   1.340   1_565  D
C225        H227   1.092       .  S
C226        H228   1.086       .  S
C229        C230   1.337       .  D
C229        H231   1.092       .  S
C230        H232   1.088       .  S
C233        C234   1.227       .  T
C235        C236   1.340       .  D
C235        H237   1.094       .  S
C236        H238   1.086       .  S
C239        C240   1.336       .  D
C239        H241   1.086       .  S
C240        H242   1.093       .  S
C243        C244   1.345       .  D
C243        H245   1.087       .  S
C244        H246   1.088       .  S
C247        C248   1.210       .  T
C249        C250   1.344       .  D
C249        H251   1.087       .  S
C250        H252   1.089       .  S
C253        C254   1.214       .  T
C255        C256   1.338       .  D
C255        H257   1.093       .  S
C256        H258   1.086       .  S
C259        C260   1.335       .  D
C259        H261   1.091       .  S
C260        H262   1.088       .  S
C263        C264   1.352       .  D
C263        H265   1.087       .  S
C264        H266   1.088       .  S
C267        C268   1.215       .  T
C269        C270   1.212       .  T
C271        C272   1.337       .  D
C271        H273   1.088       .  S
C272        H274   1.089       .  S
C275        C276   1.211       .  T
C277        C278   1.343   1_565  D
C277        H279   1.091       .  S
C278        H280   1.085       .  S
C281        C282   1.217       .  T
C283        C284   1.341   1_655  D
C283        H285   1.092       .  S
C284        H286   1.086       .  S
C287        C288   1.219       .  T
C289        C290   1.348   1_455  D
C289        H291   1.091       .  S
C290        H292   1.086       .  S
C293        C294   1.221       .  T
C295        C296   1.339   1_565  D
C295        H297   1.093       .  S
C296        H298   1.086       .  S
C299        C300   1.215   1_455  T
C301        C302   1.209       .  T
C303        C304   1.343       .  D
C303        H305   1.087       .  S
C304        H306   1.089       .  S
C307        C308   1.330   1_556  D
C307        H309   1.094       .  S
C308        H310   1.086       .  S
C311        C312   1.227       .  T
C313        C314   1.227       .  T
C315        C316   1.347       .  D
C315        H317   1.092       .  S
C316        H318   1.086   1_455  S
C319        C320   1.341       .  D
C319        H321   1.083       .  S
C320        H322   1.089   1_556  S
C323        C324   1.218       .  T
C325        C326   1.318       .  D
C325        H327   1.198       .  S
C326        H328   1.206       .  S
C329        C330   1.341       .  D
C329        H331   1.092       .  S
C330        H332   1.085       .  S
C333        C334   1.223       .  T
C335        C336   1.341       .  D
C335        H337   1.092       .  S
C336        H338   1.086       .  S
C339        C340   1.224       .  T
C341        C342   1.221       .  T
C343        C344   1.348       .  D
C343        H345   1.092       .  S
C344        H346   1.086       .  S
C347        C348   1.221       .  T
C349        C350   1.216       .  T
C351        C352   1.337   1_565  D
C351        H353   1.093       .  S
C352        H354   1.086       .  S
C355        C356   1.212       .  T
C357        C358   1.209       .  T
C359        C360   1.336       .  D
C359        H361   1.087       .  S
C360        H362   1.090       .  S
C363        C364   1.227       .  T
C365        C366   1.217       .  T
C367        C368   1.341   1_545  D
C367        H369   1.092       .  S
C368        H370   1.086       .  S
C371        C372   1.224       .  T
C373        C374   1.343   1_554  D
C373        H375   1.086       .  S
C374        H376   1.094       .  S
C377        C378   1.224       .  T
C379        C380   1.214       .  T
C381        C382   1.349       .  D
C381        H383   1.088       .  S
C382        H384   1.087       .  S
C385        C386   1.223       .  T
C387        C388   1.345       .  D
C387        H389   1.088       .  S
C388        H390   1.089       .  S
C391        C392   1.221       .  T
C393        C394   1.221       .  T
C395        C396   1.337   1_556  D
C395        H397   1.093       .  S
C396        H398   1.086       .  S
C399        C400   1.231       .  T
C401        C402   1.218       .  T
C403        C404   1.339   1_655  D
C403        H405   1.091       .  S
C404        H406   1.085       .  S
C407        C408   1.213       .  T
C409        C410   1.211       .  T
C411        C412   1.335       .  D
C411        H413   1.094       .  S
C412        H414   1.086   1_545  S
C415        C416   1.215       .  T
C417        C418   1.211       .  T
C419        C420   1.344       .  D
C419        H421   1.087   1_556  S
C420        H422   1.089       .  S
C423        C424   1.220       .  T
C425        C426   1.216       .  T
C427        C428   1.339   1_554  D
C427        H429   1.086       .  S
C428        H430   1.093       .  S
C431        C432   1.221       .  T
C433        C434   1.214       .  T
C435        C436   1.342       .  D
C435        H437   1.088       .  S
C436        H438   1.089       .  S
C439        C440   1.209       .  T
C441        C442   1.210       .  T
C443        C444   1.341       .  D
C443        H445   1.092       .  S
C444        H446   1.085       .  S
C447        C448   1.212       .  T
C449        C450   1.215       .  T
C451        C452   1.348       .  D
C451        H453   1.090       .  S
C452        H454   1.086       .  S
C455        C456   1.225       .  T
C457        C458   1.214       .  T
C459        C460   1.208       .  T
C461        C462   1.342       .  D
C461        H463   1.093       .  S
C462        H464   1.085       .  S
C465        C466   1.221       .  T
C467        C468   1.212       .  T
C469        C470   1.213       .  T
C471        C472   1.336       .  D
C471        H473   1.094       .  S
C472        H474   1.086       .  S
C475        C476   1.216       .  T
C477        C478   1.215       .  T
C479        C480   1.337       .  D
C479        H481   1.091       .  S
C480        H482   1.088       .  S
C483        C484   1.218       .  T
C485        C486   1.214       .  T
C487        C488   1.215       .  T
C489        C490   1.340       .  D
C489        H491   1.088       .  S
C490        H492   1.089       .  S
C493        C494   1.226       .  T
C495        C496   1.212       .  T
C497        C498   1.221       .  T
C499        C500   1.345       .  D
C499        H501   1.091       .  S
C500        H502   1.086       .  S
C503        C504   1.218       .  T
C505        C506   1.209       .  T
C507        C508   1.205       .  T
C509        C510   1.350       .  D
C509        H511   1.087       .  S
C510        H512   1.088       .  S
C513        C514   1.224       .  T
C515        C516   1.223       .  T
C517        C518   1.219       .  T
C519        C520   1.349       .  D
C519        H521   1.087       .  S
C520        H522   1.088       .  S
C523        C524   1.234       .  T
C525        C526   1.225       .  T
C527        C528   1.218       .  T
C529        C530   1.348       .  D
C529        H531   1.088       .  S
C530        H532   1.088       .  S
C533        C534   1.224       .  T
C535        C536   1.212       .  T
C537        C538   1.215       .  T
C539        C540   1.337       .  D
C539        H541   1.092       .  S
C540        H542   1.086       .  S
C543        C544   1.227       .  T
C545        C546   1.221       .  T
C547        C548   1.203       .  T
C549        C550   1.341       .  D
C549        H551   1.091       .  S
C550        H552   1.086       .  S
