geometry optimzed in LAMMPS
_audit_creation_date              2020-11-30 
_audit_creation_method            'lammps2cif' 
_symmetry_space_group_name_H-M    'P1' 
_symmetry_Int_Tables_number       1 
_symmetry_cell_setting            triclinic 
loop_ 
_symmetry_equiv_pos_as_xyz 
  x,y,z 
_cell_length_a                    20.52620177428683 
_cell_length_b                    20.806408632346546 
_cell_length_c                    22.07319513787728 
_cell_angle_alpha                 90.52294569886885 
_cell_angle_beta                  90.89063514097572 
_cell_angle_gamma                 90.94704688883894 
loop_ 
_atom_site_label 
_atom_site_type_symbol 
_atom_site_fract_x 
_atom_site_fract_y 
_atom_site_fract_z 
_atom_site_charge 
N1          N  0.42103300  0.62843980  0.43912343    -0.06930
N2          N  0.41482638  0.67055802  0.39518963    -0.59050
N3          N  0.36939172  0.57944568  0.57328358    -0.06610
N4          N  0.32279888  0.59088480  0.61225775    -0.61180
N5          N  0.41529763  0.62416988  0.57758790    -0.06210
N6          N  0.40070273  0.66738945  0.61897938    -0.59030
N7          N  0.37587314  0.58310500  0.43407393    -0.05890
N8          N  0.33765360  0.59384740  0.38666602    -0.61530
C9          C  0.36306129  0.64817479  0.36227647     0.95250
C10         C  0.34324881  0.64567488  0.64040161     0.95020
N11         N  0.41470887  0.38531461  0.57109641    -0.07120
N12         N  0.40221485  0.34340931  0.61419455    -0.59630
N13         N  0.37394405  0.43054234  0.43070605    -0.05230
N14         N  0.33008293  0.41576460  0.38821753    -0.60880
N15         N  0.41984094  0.38729353  0.43185347    -0.07140
N16         N  0.40851000  0.34293007  0.38992078    -0.59890
N17         N  0.36905382  0.42892843  0.56930302    -0.04880
N18         N  0.32486364  0.41748162  0.61088437    -0.60970
Mn19       Mn  0.37000379  0.50556037  0.50147393     1.18440
C20         C  0.34598634  0.36404410  0.63894650     0.97330
C21         C  0.35251850  0.36120427  0.36251924     0.97990
N22         N  0.57015544  0.62680158  0.58425661    -0.07160
N23         N  0.58382808  0.67102253  0.62595870    -0.63470
N24         N  0.61656018  0.58805370  0.44491745    -0.05970
N25         N  0.65811548  0.60178350  0.40175619    -0.64150
N26         N  0.57096701  0.63156091  0.44669211    -0.06670
N27         N  0.57996416  0.67542889  0.40497099    -0.63740
N28         N  0.61600832  0.58335533  0.58341545    -0.05570
N29         N  0.66151186  0.59712980  0.62473423    -0.64430
Mn30       Mn  0.49420502  0.62924789  0.51263129     1.10660
C31         C  0.64039960  0.65150941  0.65163546     0.98550
C32         C  0.63405937  0.65600620  0.37690360     0.98630
N33         N  0.57293352  0.38970025  0.43612827    -0.06680
N34         N  0.58672826  0.34726757  0.39335724    -0.62050
N35         N  0.61546033  0.43145459  0.57805289    -0.06000
N36         N  0.65942942  0.41795230  0.62008721    -0.58780
N37         N  0.56987517  0.38629937  0.57544333    -0.07310
N38         N  0.58218903  0.34110220  0.61538969    -0.61620
N39         N  0.61811736  0.43532371  0.43901888    -0.06290
N40         N  0.66367093  0.42451172  0.39871999    -0.58800
Mn41       Mn  0.49428064  0.38532476  0.50381040     1.20190
Mn42       Mn  0.61844433  0.50951256  0.51129495     1.10090
Cl43       Cl  0.49428240  0.50724553  0.50761783    -0.86780
C44         C  0.64288294  0.37021969  0.36969609     0.95560
C45         C  0.63772429  0.36180292  0.64365155     0.95360
C46         C  0.79954100  0.82072371  0.81690983    -0.03300
C47         C  0.80170164  0.19687629  0.79965818    -0.03300
C48         C  0.18365268  0.79736472  0.80593881    -0.03300
C49         C  0.20055853  0.19312487  0.80461594    -0.03300
C50         C  0.97109258  0.00880895  0.68727958    -0.00250
C51         C  0.04079448  0.01244549  0.68390622    -0.00250
C52         C  0.77999674  0.80666805  0.19866327    -0.03300
C53         C  0.19576915  0.80322860  0.20625567    -0.03300
C54         C  0.95702148  0.71915408  0.01845280    -0.00250
C55         C  0.02446778  0.71849375  0.01301602    -0.00250
C56         C  0.20770064  0.18026884  0.19816843    -0.03300
C57         C  0.96961920  0.99948546  0.30551222    -0.00250
C58         C  0.03664687  0.98748730  0.31267405    -0.00250
C59         C  0.29725567  0.95594000  0.00056927    -0.00250
C60         C  0.29575489  0.02255325  0.99468514    -0.00250
C61         C  0.96342033  0.27769072  0.00789568    -0.00250
C62         C  0.03091331  0.27870207  0.01407047    -0.00250
C63         C  0.80409245  0.20383440  0.21659774    -0.03300
C64         C  0.69446329  0.98161298  0.00512142    -0.00250
C65         C  0.70266748  0.04923624  0.00942155    -0.00250
C66         C  0.75253192  0.15388899  0.18350773    -0.06930
C67         C  0.69530603  0.16925512  0.14869265    -0.18060
C68         C  0.67129811  0.12796561  0.10045182     0.10260
C69         C  0.71353973  0.08240026  0.07357152    -0.06860
C70         C  0.76429898  0.06446676  0.11414234    -0.18090
C71         C  0.76943104  0.08940123  0.17365359     0.10290
S72         S  0.58389647  0.12119139  0.09055283    -0.33060
S73         S  0.74202213  0.03420518  0.23024231    -0.33070
H74         H  0.69674815  0.00179665  0.19193576     0.28300
H75         H  0.58390130  0.06541835  0.05409891     0.28300
H76         H  0.66312238  0.20612891  0.16346175     0.18890
H77         H  0.79395071  0.02473036  0.10609410     0.18900
C78         C  0.84263554  0.23601916  0.16368701    -0.06930
C79         C  0.86810139  0.19208176  0.12196666    -0.18060
C80         C  0.88187311  0.21247820  0.06505230     0.10260
C81         C  0.91685777  0.27024518  0.06025675    -0.06860
C82         C  0.90400506  0.31739948  0.10446156    -0.18090
C83         C  0.86167287  0.30255903  0.15355467     0.10290
S84         S  0.81189594  0.20036731  0.01724884    -0.33060
S85         S  0.84502198  0.36872486  0.20355373    -0.33070
H86         H  0.87438843  0.33994356  0.25394549     0.28300
H87         H  0.82177209  0.13373421  0.01668503     0.28300
H88         H  0.86585322  0.14102351  0.12835111     0.18890
H89         H  0.92545416  0.36501178  0.10035554     0.18900
C90         C  0.93778088  0.06532337  0.30232359    -0.06930
C91         C  0.96118091  0.11325761  0.26386196    -0.18060
C92         C  0.92406009  0.16640294  0.24804863     0.10260
C93         C  0.85500414  0.16393979  0.25523678    -0.06860
C94         C  0.83356371  0.12195697  0.30100603    -0.18090
C95         C  0.87483514  0.07537188  0.32652499     0.10290
S96         S  0.96886878  0.23979833  0.23278414    -0.33060
S97         S  0.84359700  0.02902574  0.38848729    -0.33070
H98         H  0.90526902  0.01198565  0.41132834     0.28300
H99         H  0.02969892  0.21941540  0.25408341     0.28300
H100        H  0.00769017  0.10928414  0.24360289     0.18890
H101        H  0.78389712  0.12509506  0.31648282     0.18900
C102        C  0.06121754  0.26796408  0.07614421    -0.06930
C103        C  0.04635187  0.21109320  0.10653970    -0.18060
C104        C  0.09162174  0.18045941  0.14311521     0.10260
C105        C  0.14792798  0.21472657  0.16617211    -0.06860
C106        C  0.15599666  0.27848556  0.14324171    -0.18090
C107        C  0.11422983  0.30453573  0.09890758     0.10290
S108        S  0.07713658  0.09476471  0.14380109    -0.33060
S109        S  0.13303322  0.38339360  0.07093336    -0.33070
H110        H  0.06775205  0.39789819  0.05730767     0.28300
H111        H  0.13903930  0.07605628  0.12650404     0.28300
H112        H  0.00201764  0.18548689  0.09783703     0.18890
H113        H  0.20004435  0.30591843  0.15318916     0.18900
C114        C  0.24953128  0.15563214  0.14143283    -0.06930
C115        C  0.31207481  0.12720433  0.14210981    -0.18060
C116        C  0.32993074  0.08299945  0.09544360     0.10260
C117        C  0.28404207  0.06681630  0.04845332    -0.06860
C118        C  0.22765691  0.10380402  0.04514168    -0.18090
C119        C  0.22288254  0.15757467  0.08178561     0.10290
S120        S  0.40933373  0.04788198  0.09976760    -0.33060
S121        S  0.23149773  0.22968968  0.03817099    -0.33070
H122        H  0.27427388  0.26101037  0.07973937     0.28300
H123        H  0.41529719  0.03753940  0.03712015     0.28300
H124        H  0.34619996  0.13597998  0.17844330     0.18890
H125        H  0.19563648  0.10039432  0.00576573     0.18900
C126        C  0.08998000  0.03776915  0.29872918    -0.06930
C127        C  0.13934362  0.01853918  0.25948344    -0.18060
C128        C  0.18629199  0.06021637  0.23664400     0.10260
C129        C  0.17826721  0.12753047  0.24176087    -0.06860
C130        C  0.13561254  0.14658129  0.28907232    -0.18090
C131        C  0.09572649  0.10189266  0.32064864     0.10290
S132        S  0.25578494  0.02086215  0.20794654    -0.33060
S133        S  0.05276180  0.13005136  0.38610598    -0.33070
H134        H  0.03707130  0.06864329  0.40822937     0.28300
H135        H  0.27738005  0.00615135  0.26681670     0.28300
H136        H  0.14283001  0.96932197  0.24580861     0.18890
H137        H  0.13225917  0.19673351  0.30132563     0.18900
C138        C  0.15561223  0.75690786  0.16087026    -0.06930
C139        C  0.18006944  0.74565274  0.10225655    -0.18060
C140        C  0.14094423  0.71881348  0.05621015     0.10260
C141        C  0.07365400  0.70997448  0.06531936    -0.06860
C142        C  0.05767540  0.69684825  0.12577015    -0.18090
C143        C  0.09993107  0.71664202  0.17394005     0.10290
S144        S  0.18231946  0.67772765  0.99704193    -0.33060
S145        S  0.08029680  0.68541870  0.24765742    -0.33070
H146        H  0.13237005  0.71258418  0.28061970     0.28300
H147        H  0.13378676  0.62969226  0.98901058     0.28300
H148        H  0.23072423  0.75423126  0.09252230     0.18890
H149        H  0.01351208  0.67049873  0.13597110     0.18900
C150        C  0.22832507  0.85593642  0.16242286    -0.06930
C151        C  0.29294286  0.84705906  0.14029167    -0.18060
C152        C  0.31969076  0.88254114  0.09207330     0.10260
C153        C  0.28206765  0.92906335  0.06235627    -0.06860
C154        C  0.21973403  0.93974640  0.08373880    -0.18090
C155        C  0.19287440  0.90477833  0.13123656     0.10290
S156        S  0.39977832  0.86129819  0.06690963    -0.33060
S157        S  0.10926348  0.92061176  0.13925634    -0.33070
H158        H  0.09979979  0.85826017  0.11740160     0.28300
H159        H  0.41158569  0.91623994  0.03207995     0.28300
H160        H  0.32216327  0.80800287  0.15652453     0.18890
H161        H  0.18877929  0.97259707  0.05915836     0.18900
C162        C  0.14837190  0.83493178  0.25618690    -0.06930
C163        C  0.08000805  0.83928856  0.24435592    -0.18060
C164        C  0.03787223  0.86628834  0.28631069     0.10260
C165        C  0.06303077  0.91908114  0.31887008    -0.06860
C166        C  0.12635440  0.90891693  0.34211739    -0.18090
C167        C  0.16610030  0.86140527  0.31554423     0.10290
S168        S  0.00521009  0.80485329  0.33475370    -0.33060
S169        S  0.21761123  0.82385330  0.37100335    -0.33070
H170        H  0.20068346  0.76090121  0.35274051     0.28300
H171        H  0.98194570  0.76517988  0.28728693     0.28300
H172        H  0.05668987  0.81765287  0.20568986     0.18890
H173        H  0.14545564  0.93901547  0.37878636     0.18900
C174        C  0.82858806  0.75848817  0.16713692    -0.06930
C175        C  0.89594538  0.76873330  0.17445086    -0.18060
C176        C  0.93407762  0.76602602  0.12332091     0.10260
C177        C  0.91937958  0.72118569  0.07683144    -0.06860
C178        C  0.85691589  0.69227280  0.07817881    -0.18090
C179        C  0.80937790  0.71526629  0.11836061     0.10290
S180        S  0.97662938  0.83841488  0.10668025    -0.33060
S181        S  0.72482494  0.69538326  0.10116936    -0.33070
H182        H  0.73514515  0.65415912  0.05153160     0.28300
H183        H  0.96833817  0.87091680  0.16174505     0.28300
H184        H  0.91545009  0.79671697  0.21163248     0.18890
H185        H  0.84245410  0.65962921  0.04188290     0.18900
C186        C  0.71212951  0.94200225  0.05972945    -0.06930
C187        C  0.66410166  0.91473330  0.09702454    -0.18060
C188        C  0.67881642  0.86440257  0.13805796     0.10260
C189        C  0.74414075  0.84085133  0.14290787    -0.06860
C190        C  0.78552489  0.86012822  0.09536620    -0.18090
C191        C  0.77405703  0.91396598  0.06105706     0.10290
S192        S  0.60926154  0.82768735  0.17334808    -0.33060
S193        S  0.84594677  0.94891369  0.02841414    -0.33070
H194        H  0.82381206  0.00982282  0.01403799     0.28300
H195        H  0.63158704  0.76462189  0.16800813     0.28300
H196        H  0.61428766  0.93045819  0.09189724     0.18890
H197        H  0.83461976  0.84338609  0.09308076     0.18900
C198        C  0.82174015  0.86004555  0.23647931    -0.06930
C199        C  0.84054936  0.91755069  0.20741286    -0.18060
C200        C  0.89468215  0.95416691  0.22449958     0.10260
C201        C  0.92216789  0.94802205  0.28265183    -0.06860
C202        C  0.89516640  0.90013279  0.31975046    -0.18090
C203        C  0.85114389  0.85245779  0.29574804     0.10290
S204        S  0.92759102  0.00634029  0.16744369    -0.33060
S205        S  0.83834296  0.78358286  0.34318556    -0.33070
H206        H  0.85532302  0.73940241  0.29783851     0.28300
H207        H  0.99232629  0.99549087  0.18550811     0.28300
H208        H  0.81514540  0.93620292  0.16958366     0.18890
H209        H  0.91240518  0.89679154  0.36621500     0.18900
C210        C  0.07921130  0.07806561  0.67654186    -0.06930
C211        C  0.14621544  0.07919524  0.66705549    -0.18060
C212        C  0.18843706  0.11500504  0.70653451     0.10260
C213        C  0.16163891  0.15777840  0.75061094    -0.06860
C214        C  0.09865914  0.17728110  0.73378639    -0.18090
C215        C  0.05885412  0.14018774  0.69321004     0.10290
S216        S  0.27350440  0.10571941  0.69474656    -0.33060
S217        S  0.00716603  0.18485875  0.64269052    -0.33070
H218        H  0.00750601  0.13844406  0.59598497     0.28300
H219        H  0.27470748  0.15477968  0.65127536     0.28300
H220        H  0.16506284  0.05009767  0.63097257     0.18890
H221        H  0.08450201  0.22507577  0.74585016     0.18900
C222        C  0.24066493  0.14474935  0.84441249    -0.06930
C223        C  0.22198202  0.07853761  0.84468200    -0.18060
C224        C  0.23362248  0.04051492  0.89584997     0.10260
C225        C  0.28545387  0.05686116  0.93550079    -0.06860
C226        C  0.31351237  0.11854590  0.92988921    -0.18090
C227        C  0.28534618  0.16481119  0.89211044     0.10290
S228        S  0.17055230  0.98564559  0.92120111    -0.33060
S229        S  0.31363071  0.24653030  0.90802273    -0.33070
H230        H  0.26502852  0.28101831  0.87946765     0.28300
H231        H  0.12806632  0.98831059  0.87124552     0.28300
H232        H  0.18710775  0.05966009  0.81203160     0.18890
H233        H  0.35071966  0.13400829  0.96251170     0.18900
C234        C  0.07465138  0.26443011  0.95903340    -0.06930
C235        C  0.09132303  0.20059920  0.94860196    -0.18060
C236        C  0.11482800  0.17980922  0.89242926     0.10260
C237        C  0.15019679  0.22206934  0.85376967    -0.06860
C238        C  0.14073349  0.28851207  0.86806203    -0.18090
C239        C  0.09862286  0.30919527  0.91573644     0.10290
S240        S  0.08067177  0.10527073  0.86513132    -0.33060
S241        S  0.07964736  0.39325704  0.91921077    -0.33070
H242        H  0.02235490  0.38629829  0.95255834     0.28300
H243        H  0.07076078  0.07754988  0.92206229     0.28300
H244        H  0.07929916  0.16511308  0.98188746     0.18890
H245        H  0.16439763  0.32550006  0.84215923     0.18900
C246        C  0.05287237  0.73898244  0.95275388    -0.06930
C247        C  0.05795273  0.69497728  0.90447837    -0.18060
C248        C  0.09199002  0.71029673  0.85087636     0.10260
C249        C  0.12655222  0.77131045  0.84715703    -0.06860
C250        C  0.10740273  0.81760002  0.88997245    -0.18090
C251        C  0.07450767  0.80241897  0.94245476     0.10290
S252        S  0.07818490  0.65129813  0.79121616    -0.33060
S253        S  0.06610104  0.86656299  0.99572446    -0.33070
H254        H  0.05070626  0.91298207  0.95200846     0.28300
H255        H  0.12790363  0.66720831  0.75262865     0.28300
H256        H  0.03609784  0.64759649  0.90907921     0.18890
H257        H  0.12455846  0.86645429  0.88558445     0.18900
C258        C  0.14674385  0.85005198  0.76503236    -0.06930
C259        C  0.15737076  0.91635441  0.77558061    -0.18060
C260        C  0.14547539  0.95921504  0.72892515     0.10260
C261        C  0.08465757  0.95288947  0.69791245    -0.06860
C262        C  0.06768502  0.88796346  0.68539491    -0.18090
C263        C  0.10234493  0.83664516  0.71421141     0.10290
S264        S  0.21825007  0.95497631  0.68343261    -0.33060
S265        S  0.09267692  0.75815912  0.68031031    -0.33070
H266        H  0.04727917  0.77401997  0.63470884     0.28300
H267        H  0.18572270  0.93928143  0.62845046     0.28300
H268        H  0.19004690  0.93338239  0.81003941     0.18890
H269        H  0.02827694  0.87755721  0.65353441     0.18900
C270        C  0.23958529  0.82682695  0.85117054    -0.06930
C271        C  0.28535441  0.87674415  0.83808674    -0.18060
C272        C  0.31389824  0.91504105  0.88635303     0.10260
C273        C  0.29069586  0.90724264  0.94711178    -0.06860
C274        C  0.25443455  0.84970696  0.95660241    -0.18090
C275        C  0.24880937  0.80360010  0.91067796     0.10290
S276        S  0.38059052  0.96829351  0.86788696    -0.33060
S277        S  0.31258063  0.74602685  0.92262972    -0.33070
H278        H  0.33253453  0.74339935  0.86195510     0.28300
H279        H  0.40421107  0.97518213  0.92777425     0.28300
H280        H  0.29536072  0.88891589  0.79156962     0.18890
H281        H  0.24025620  0.83481731  0.00127595     0.18900
C282        C  0.75640487  0.14928127  0.83767692    -0.06930
C283        C  0.71422179  0.17831631  0.87995842    -0.18060
C284        C  0.69251737  0.14788267  0.93322761     0.10260
C285        C  0.71882320  0.08762489  0.95127040    -0.06860
C286        C  0.76386688  0.06143185  0.91047541    -0.18090
C287        C  0.77264583  0.08510322  0.85149777     0.10290
S288        S  0.63719752  0.19327575  0.97783363    -0.33060
S289        S  0.81143830  0.03283660  0.79938127    -0.33070
H290        H  0.76340510  0.04241736  0.75433763     0.28300
H291        H  0.61415531  0.23340582  0.93148527     0.28300
H292        H  0.70249551  0.22836663  0.87384468     0.18890
H293        H  0.78766845  0.01734483  0.92156366     0.18900
C294        C  0.85257981  0.16351272  0.75627790    -0.06930
C295        C  0.83394082  0.13422487  0.70010858    -0.18060
C296        C  0.87695101  0.09222490  0.66954750     0.10260
C297        C  0.93242255  0.06822480  0.70162708    -0.06860
C298        C  0.94881409  0.09884920  0.75607521    -0.18090
C299        C  0.92013392  0.15642724  0.77118347     0.10290
S300        S  0.86565025  0.08358255  0.58892905    -0.33060
S301        S  0.97646817  0.21770642  0.80130968    -0.33070
H302        H  0.94019633  0.27314640  0.79997706     0.28300
H303        H  0.92657524  0.05596164  0.57865006     0.28300
H304        H  0.78719596  0.14487980  0.67953172     0.18890
H305        H  0.99156302  0.08390567  0.78040018     0.18900
C306        C  0.84156079  0.22775159  0.85381352    -0.06930
C307        C  0.87727230  0.18227582  0.88724811    -0.18060
C308        C  0.92261253  0.19693571  0.93087037     0.10260
C309        C  0.93163750  0.26182876  0.94893598    -0.06860
C310        C  0.89197367  0.30867404  0.92149101    -0.18090
C311        C  0.84569732  0.29247967  0.87509868     0.10290
S312        S  0.95442926  0.12477631  0.96474640    -0.33060
S313        S  0.78960622  0.35309875  0.85063398    -0.32940
H314        H  0.81927473  0.40533859  0.88182861     0.28300
H315        H  0.98185032  0.15321246  0.01418887     0.28300
H316        H  0.87611768  0.13246201  0.87433183     0.18890
H317        H  0.89438818  0.35721422  0.93953570     0.18900
C318        C  0.74818038  0.85843291  0.85740249    -0.06930
C319        C  0.71927864  0.91748723  0.84118212    -0.18060
C320        C  0.68435657  0.95446653  0.88459651     0.10260
C321        C  0.68810261  0.93750752  0.94687261    -0.06860
C322        C  0.69213338  0.87052043  0.95422854    -0.18090
C323        C  0.72020783  0.83077714  0.91100753     0.10290
S324        S  0.62667985  0.01230304  0.85728990    -0.33060
S325        S  0.71716271  0.74653069  0.93097150    -0.33070
H326        H  0.71265202  0.72051282  0.87259920     0.28300
H327        H  0.59718542  0.02174370  0.91377221     0.28300
H328        H  0.72079964  0.93292352  0.79469267     0.18890
H329        H  0.67654963  0.84820979  0.99568182     0.18900
C330        C  0.84290743  0.79082206  0.86738637    -0.06930
C331        C  0.84999521  0.72349552  0.87410843    -0.18060
C332        C  0.88744006  0.69759577  0.92173573     0.10260
C333        C  0.91680318  0.73940375  0.96531645    -0.06860
C334        C  0.90891955  0.80511485  0.95973318    -0.18090
C335        C  0.87633934  0.83174668  0.91125897     0.10290
S336        S  0.89390610  0.61124543  0.92451588    -0.33060
S337        S  0.89567733  0.91682656  0.90320985    -0.33070
H338        H  0.84077192  0.93498468  0.87196421     0.28300
H339        H  0.93673374  0.60737579  0.97444684     0.28300
H340        H  0.82536047  0.69028333  0.84335589     0.18890
H341        H  0.93233252  0.83722313  0.99204903     0.18900
C342        C  0.84802748  0.86202371  0.77528065    -0.06930
C343        C  0.82532396  0.89436809  0.72326876    -0.18060
C344        C  0.86856476  0.93056221  0.68618977     0.10260
C345        C  0.93231350  0.94929489  0.70799046    -0.06860
C346        C  0.95353070  0.91737008  0.75946781    -0.18090
C347        C  0.91838567  0.86513196  0.78193498     0.10290
S348        S  0.84576977  0.93490756  0.60772586    -0.33060
S349        S  0.97039825  0.80437403  0.81260920    -0.33070
H350        H  0.99051222  0.78580600  0.75504690     0.28300
H351        H  0.91028323  0.94087495  0.58754205     0.28300
H352        H  0.77550864  0.88615196  0.70793592     0.18890
H353        H  0.00048708  0.92904280  0.77993701     0.18900
C354        C  0.67933593  0.69023381  0.69649435    -0.06930
C355        C  0.74739884  0.68633943  0.69674136    -0.18060
C356        C  0.78748955  0.72661797  0.73377295     0.10260
C357        C  0.75926010  0.77238551  0.77402404    -0.06860
C358        C  0.68982332  0.77602805  0.77087393    -0.18090
C359        C  0.65060934  0.73485969  0.73537631     0.10290
S360        S  0.87409767  0.71857622  0.72584728    -0.33060
S361        S  0.56356813  0.74072005  0.74412719    -0.33070
H362        H  0.55190952  0.67388575  0.74162165     0.28300
H363        H  0.87390057  0.67236299  0.67898244     0.28300
H364        H  0.76944661  0.65249952  0.66606450     0.18890
H365        H  0.66302436  0.81000282  0.79727361     0.18900
C366        C  0.67667114  0.32250473  0.68622325    -0.06930
C367        C  0.74434094  0.33089745  0.68675256    -0.18060
C368        C  0.78566612  0.29140300  0.72066786     0.10260
C369        C  0.75916052  0.24245349  0.75880376    -0.06860
C370        C  0.69056840  0.23201859  0.75346391    -0.18090
C371        C  0.64961597  0.27257191  0.72075173     0.10290
S372        S  0.87134610  0.30245736  0.70767008    -0.33060
S373        S  0.56299091  0.25818635  0.72631095    -0.33070
H374        H  0.54728074  0.32374660  0.72859164     0.28300
H375        H  0.86927400  0.36640856  0.68764776     0.28300
H376        H  0.76553558  0.36685619  0.65752648     0.18890
H377        H  0.66670876  0.19152322  0.77427659     0.18900
C378        C  0.30295048  0.68243070  0.68195006    -0.06930
C379        C  0.28106576  0.65319189  0.73440445    -0.18060
C380        C  0.24409255  0.68637979  0.77702121     0.10260
C381        C  0.22270737  0.75083861  0.76435493    -0.06860
C382        C  0.25023598  0.77968534  0.71245060    -0.18090
C383        C  0.28762108  0.74656778  0.67101134     0.10290
S384        S  0.22781926  0.63817539  0.84269961    -0.33060
S385        S  0.31253375  0.78893836  0.60399244    -0.33070
H386        H  0.30383005  0.73605139  0.56435215     0.28300
H387        H  0.20739017  0.68771430  0.87866951     0.28300
H388        H  0.29487801  0.60397788  0.74312710     0.18890
H389        H  0.24274672  0.82946800  0.70280569     0.18900
C390        C  0.66508433  0.69263524  0.32831317    -0.06930
C391        C  0.66017535  0.75968868  0.32841618    -0.18060
C392        C  0.69422257  0.79812656  0.28728736     0.10260
C393        C  0.73434619  0.76867013  0.24247013    -0.06860
C394        C  0.73820350  0.70031318  0.24483567    -0.18090
C395        C  0.70291855  0.66280814  0.28460227     0.10290
S396        S  0.68830814  0.88345941  0.30204846    -0.33060
S397        S  0.70856330  0.57657856  0.27637464    -0.33070
H398        H  0.64215813  0.56435401  0.28735111     0.28300
H399        H  0.70594619  0.90445687  0.24518330     0.28300
H400        H  0.63166613  0.78290207  0.36301088     0.18890
H401        H  0.77056750  0.67309922  0.21731355     0.18900
C402        C  0.24531016  0.24356170  0.77049131    -0.06930
C403        C  0.21281587  0.29334529  0.73944365    -0.18060
C404        C  0.24409955  0.33607217  0.70020317     0.10260
C405        C  0.31081665  0.32898631  0.68779861    -0.06860
C406        C  0.34492548  0.28224791  0.71944355    -0.18090
C407        C  0.31478980  0.23952238  0.75960267     0.10290
S408        S  0.19431011  0.39615249  0.66518723    -0.33060
S409        S  0.36981755  0.17772689  0.78596421    -0.33070
H410        H  0.42626045  0.21701656  0.78983022     0.28300
H411        H  0.23470430  0.44730002  0.68603597     0.28300
H412        H  0.16105504  0.29876907  0.74417148     0.18890
H413        H  0.39616102  0.27661798  0.71000498     0.18900
C414        C  0.25062723  0.76283365  0.23854506    -0.06930
C415        C  0.24806061  0.69452600  0.23518605    -0.18060
C416        C  0.28753224  0.65580700  0.27093583     0.10260
C417        C  0.33259867  0.68417486  0.31182722    -0.06860
C418        C  0.34501026  0.75022882  0.30755542    -0.18090
C419        C  0.30610681  0.78981319  0.27134446     0.10290
S420        S  0.27864007  0.57025515  0.26060820    -0.33060
S421        S  0.33080996  0.87377377  0.27458784    -0.33070
H422        H  0.26947417  0.89867627  0.26405729     0.28300
H423        H  0.34486851  0.55739754  0.27152335     0.28300
H424        H  0.21399802  0.66883865  0.20597430     0.18890
H425        H  0.38286427  0.77234786  0.33589825     0.18900
C426        C  0.68489356  0.33244482  0.32937975    -0.06930
C427        C  0.73977866  0.30449541  0.35521465    -0.18060
C428        C  0.78302230  0.26800556  0.32085321     0.10260
C429        C  0.76822473  0.25385128  0.25797029    -0.06860
C430        C  0.71742379  0.29007514  0.23177777    -0.18090
C431        C  0.67495370  0.32725202  0.26638111     0.10290
S432        S  0.86145374  0.25572143  0.35749016    -0.33060
S433        S  0.60999208  0.36770100  0.22709268    -0.33070
H434        H  0.60399886  0.41866701  0.26874037     0.28300
H435        H  0.83963839  0.25621387  0.41761062     0.28300
H436        H  0.75030826  0.31391999  0.40275728     0.18890
H437        H  0.71277401  0.29244825  0.18305990     0.18900
C438        C  0.24686312  0.22749688  0.24225139    -0.06930
C439        C  0.21823656  0.28529306  0.26282933    -0.18060
C440        C  0.25218131  0.33166207  0.29741303     0.10260
C441        C  0.31591146  0.31921984  0.31838191    -0.06860
C442        C  0.34189061  0.25892816  0.30505993    -0.18090
C443        C  0.30618404  0.21179978  0.27277200     0.10290
S444        S  0.20970846  0.40458070  0.31362897    -0.33060
S445        S  0.32854685  0.13156752  0.29255912    -0.33070
H446        H  0.27510205  0.12363913  0.33109315     0.28300
H447        H  0.26226240  0.44269459  0.29441292     0.28300
H448        H  0.16753248  0.29492616  0.25372259     0.18890
H449        H  0.38775458  0.24532018  0.32582088     0.18900
loop_ 
_geom_bond_atom_site_label_1 
_geom_bond_atom_site_label_2 
_geom_bond_distance 
_geom_bond_site_symmetry_2 
_ccdc_geom_bond_type 
N1            N2   1.319       .  A
N1            N7   1.314       .  A
N1          Mn30   2.194       .  S
N2            C9   1.352       .  A
N3            N5   1.315       .  A
N3            N4   1.319       .  A
N3          Mn19   2.198       .  S
N4           C10   1.351       .  A
N5            N6   1.317       .  A
N5          Mn30   2.182       .  S
N6           C10   1.350       .  A
N7            N8   1.321       .  A
N7          Mn19   2.208       .  S
N8            C9   1.356       .  A
C9          C417   1.484       .  S
C10         C378   1.464       .  S
N11          N17   1.316       .  A
N11          N12   1.321       .  A
N11         Mn41   2.225       .  S
N12          C20   1.359       .  A
N13          N14   1.321       .  A
N13          N15   1.314       .  A
N13         Mn19   2.201       .  S
N14          C21   1.355       .  A
N15          N16   1.317       .  A
N15         Mn41   2.188       .  S
N16          C21   1.352       .  A
N17          N18   1.321       .  A
N17         Mn19   2.197       .  S
N18          C20   1.352       .  A
Mn19        Cl43   2.552       .  S
C20         C405   1.496       .  S
C21         C441   1.489       .  S
N22          N23   1.319       .  A
N22          N28   1.316       .  A
N22         Mn30   2.205       .  S
N23          C31   1.354       .  A
N24          N26   1.314       .  A
N24          N25   1.319       .  A
N24         Mn42   2.205       .  S
N25          C32   1.356       .  A
N26          N27   1.315       .  A
N26         Mn30   2.162       .  S
N27          C32   1.346       .  A
N28          N29   1.321       .  A
N28         Mn42   2.204       .  S
N29          C31   1.354       .  A
Mn30        Cl43   2.540       .  S
C31         C354   1.486       .  S
C32         C390   1.469       .  S
N33          N34   1.324       .  A
N33          N39   1.317       .  A
N33         Mn41   2.218       .  S
N34          C44   1.354       .  A
N35          N36   1.320       .  A
N35          N37   1.315       .  A
N35         Mn42   2.204       .  S
N36          C45   1.355       .  A
N37          N38   1.320       .  A
N37         Mn41   2.198       .  S
N38          C45   1.353       .  A
N39          N40   1.321       .  A
N39         Mn42   2.210       .  S
N40          C44   1.353       .  A
Mn41        Cl43   2.537       .  S
Mn42        Cl43   2.548       .  S
C44         C426   1.479       .  S
C45         C366   1.484       .  S
C46         C318   1.603       .  S
C46         C330   1.556       .  S
C46         C342   1.609       .  S
C46         C357   1.588       .  S
C47         C282   1.599       .  S
C47         C294   1.591       .  S
C47         C306   1.565       .  S
C47         C369   1.579       .  S
C48         C249   1.586       .  S
C48         C258   1.617       .  S
C48         C270   1.619       .  S
C48         C381   1.567       .  S
C49         C213   1.592       .  S
C49         C222   1.576       .  S
C49         C237   1.628       .  S
C49         C402   1.586       .  S
C50          C51   1.435   1_655  D
C50         C297   1.514       .  S
C50         C345   1.538   1_545  S
C51         C210   1.576       .  S
C51         C261   1.574   1_545  S
C52         C174   1.589       .  S
C52         C189   1.602       .  S
C52         C198   1.611       .  S
C52         C393   1.567       .  S
C53         C138   1.594       .  S
C53         C150   1.613       .  S
C53         C162   1.624       .  S
C53         C414   1.581       .  S
C54          C55   1.392   1_655  D
C54         C177   1.513       .  S
C54         C333   1.492   1_554  S
C55         C141   1.535       .  S
C55         C246   1.522   1_554  S
C56         C105   1.590       .  S
C56         C114   1.614       .  S
C56         C129   1.584       .  S
C56         C438   1.578       .  S
C57          C58   1.409   1_655  D
C57          C90   1.529   1_565  S
C57         C201   1.513       .  S
C58         C126   1.538   1_565  S
C58         C165   1.538       .  S
C59          C60   1.394   1_564  D
C59         C153   1.514       .  S
C59         C273   1.551   1_554  S
C60         C117   1.520   1_556  S
C60         C225   1.508       .  S
C61          C62   1.390   1_655  D
C61          C81   1.519       .  S
C61         C309   1.479   1_554  S
C62         C102   1.516       .  S
C62         C234   1.551   1_554  S
C63          C66   1.631       .  S
C63          C78   1.570       .  S
C63          C93   1.588       .  S
C63         C429   1.577       .  S
C64          C65   1.416   1_565  D
C64         C186   1.509       .  S
C64         C321   1.575   1_554  S
C65          C69   1.581       .  S
C65         C285   1.555   1_554  S
C66          C67   1.436       .  A
C66          C71   1.407       .  A
C67          C68   1.438       .  A
C67          H76   1.072       .  S
C68          C69   1.427       .  A
C68          S72   1.807       .  S
C69          C70   1.420       .  A
C70          C71   1.410       .  A
C70          H77   1.050       .  S
C71          S73   1.795       .  S
S72          H75   1.406       .  S
S73          H74   1.406       .  S
C78          C79   1.404       .  A
C78          C83   1.453       .  A
C79          C80   1.362       .  A
C79          H88   1.073       .  S
C80          C81   1.396       .  A
C80          S84   1.782       .  S
C81          C82   1.408       .  A
C82          C83   1.432       .  A
C82          H89   1.083       .  S
C83          S85   1.797       .  S
S84          H87   1.404       .  S
S85          H86   1.401       .  S
C90          C91   1.399       .  A
C90          C95   1.424       .  A
C91          C92   1.397       .  A
C91         H100   1.065   1_655  S
C92          C93   1.429       .  A
C92          S96   1.807       .  S
C93          C94   1.412       .  A
C94          C95   1.413       .  A
C94         H101   1.083       .  S
C95          S97   1.801       .  S
S96          H99   1.401   1_655  S
S97          H98   1.407       .  S
C102        C103   1.397       .  A
C102        C107   1.401       .  A
C103        C104   1.388       .  A
C103        H112   1.061       .  S
C104        C105   1.432       .  A
C104        S108   1.803       .  S
C105        C106   1.432       .  A
C106        C107   1.409       .  A
C106        H113   1.080       .  S
C107        S109   1.796       .  S
S108        H111   1.393       .  S
S109        H110   1.407       .  S
C114        C115   1.422       .  A
C114        C119   1.419       .  A
C115        C116   1.431       .  A
C115        H124   1.069       .  S
C116        C117   1.424       .  A
C116        S120   1.799       .  S
C117        C118   1.402       .  A
C118        C119   1.380       .  A
C118        H125   1.083       .  S
C119        S121   1.798       .  S
S120        H123   1.405       .  S
S121        H122   1.408       .  S
C126        C127   1.404       .  A
C126        C131   1.417       .  A
C127        C128   1.389       .  A
C127        H136   1.069   1_545  S
C128        C129   1.417       .  A
C128        S132   1.779       .  S
C129        C130   1.431       .  A
C130        C131   1.423       .  A
C130        H137   1.079       .  S
C131        S133   1.803       .  S
S132        H135   1.404       .  S
S133        H134   1.406       .  S
C138        C139   1.414       .  A
C138        C143   1.440       .  A
C139        C140   1.393       .  A
C139        H148   1.077       .  S
C140        C141   1.408       .  A
C140        S144   1.788   1_554  S
C141        C142   1.407       .  A
C142        C143   1.416       .  A
C142        H149   1.079       .  S
C143        S145   1.806       .  S
S144        H147   1.408       .  S
S145        H146   1.393       .  S
C150        C151   1.435       .  A
C150        C155   1.434       .  A
C151        C152   1.414       .  A
C151        H160   1.079       .  S
C152        C153   1.409       .  A
C152        S156   1.804       .  S
C153        C154   1.391       .  A
C154        C155   1.397       .  A
C154        H161   1.084       .  S
C155        S157   1.764       .  S
S156        H159   1.403       .  S
S157        H158   1.390       .  S
C162        C163   1.428       .  A
C162        C167   1.455       .  A
C163        C164   1.397       .  A
C163        H172   1.065       .  S
C164        C165   1.395       .  A
C164        S168   1.802       .  S
C165        C166   1.410       .  A
C166        C167   1.420       .  A
C166        H173   1.083       .  S
C167        S169   1.798       .  S
S168        H171   1.401   1_455  S
S169        H170   1.403       .  S
C174        C175   1.402       .  A
C174        C179   1.442       .  A
C175        C176   1.385       .  A
C175        H184   1.071       .  S
C176        C177   1.406       .  A
C176        S180   1.773       .  S
C177        C178   1.408       .  A
C178        C179   1.415       .  A
C178        H185   1.080       .  S
C179        S181   1.811       .  S
S180        H183   1.400       .  S
S181        H182   1.406       .  S
C186        C187   1.410       .  A
C186        C191   1.407       .  A
C187        C188   1.424       .  A
C187        H196   1.083       .  S
C188        C189   1.438       .  A
C188        S192   1.799       .  S
C189        C190   1.417       .  A
C190        C191   1.379       .  A
C190        H197   1.073       .  S
C191        S193   1.798       .  S
S192        H195   1.402       .  S
S193        H194   1.391   1_565  S
C198        C199   1.414       .  A
C198        C203   1.443       .  A
C199        C200   1.382       .  A
C199        H208   1.058       .  S
C200        C201   1.402       .  A
C200        S204   1.802   1_565  S
C201        C202   1.408       .  A
C202        C203   1.424       .  A
C202        H209   1.083       .  S
C203        S205   1.801       .  S
S204        H207   1.404   1_545  S
S205        H206   1.405       .  S
C210        C211   1.394       .  A
C210        C215   1.412       .  A
C211        C212   1.417       .  A
C211        H220   1.077       .  S
C212        C213   1.435       .  A
C212        S216   1.783       .  S
C213        C214   1.407       .  A
C214        C215   1.417       .  A
C214        H221   1.073       .  S
C215        S217   1.802       .  S
S216        H219   1.408       .  S
S217        H218   1.406       .  S
C222        C223   1.424       .  A
C222        C227   1.440       .  A
C223        C224   1.405       .  A
C223        H232   1.075       .  S
C224        C225   1.403       .  A
C224        S228   1.810   1_545  S
C225        C226   1.405       .  A
C226        C227   1.405       .  A
C226        H233   1.084       .  S
C227        S229   1.817       .  S
S228        H231   1.397       .  S
S229        H230   1.386       .  S
C234        C235   1.395       .  A
C234        C239   1.428       .  A
C235        C236   1.405       .  A
C235        H244   1.075       .  S
C236        C237   1.428       .  A
C236        S240   1.787       .  S
C237        C238   1.432       .  A
C238        C239   1.439       .  A
C238        H245   1.077       .  S
C239        S241   1.799       .  S
S240        H243   1.404       .  S
S241        H242   1.403       .  S
C246        C247   1.405       .  A
C246        C251   1.407       .  A
C247        C248   1.419       .  A
C247        H256   1.083       .  S
C248        C249   1.448       .  A
C248        S252   1.808       .  S
C249        C250   1.408       .  A
C250        C251   1.386       .  A
C250        H257   1.076       .  S
C251        S253   1.783       .  S
S252        H255   1.378       .  S
S253        H254   1.408       .  S
C258        C259   1.410       .  A
C258        C263   1.456       .  A
C259        C260   1.390       .  A
C259        H268   1.061       .  S
C260        C261   1.418       .  A
C260        S264   1.816       .  S
C261        C262   1.413       .  A
C262        C263   1.440       .  A
C262        H269   1.081       .  S
C263        S265   1.797       .  S
S264        H267   1.409       .  S
S265        H266   1.406       .  S
C270        C271   1.423       .  A
C270        C275   1.415       .  A
C271        C272   1.436       .  A
C271        H280   1.082       .  S
C272        C273   1.440       .  A
C272        S276   1.801       .  S
C273        C274   1.418       .  A
C274        C275   1.391       .  A
C274        H281   1.079   1_556  S
C275        S277   1.807       .  S
S276        H279   1.406       .  S
S277        H278   1.407       .  S
C282        C283   1.420       .  A
C282        C287   1.416       .  A
C283        C284   1.415       .  A
C283        H292   1.082       .  S
C284        C285   1.431       .  A
C284        S288   1.790       .  S
C285        C286   1.413       .  A
C286        C287   1.409       .  A
C286        H293   1.075       .  S
C287        S289   1.782       .  S
S288        H291   1.408       .  S
S289        H290   1.407       .  S
C294        C295   1.421       .  A
C294        C299   1.430       .  A
C295        C296   1.425       .  A
C295        H304   1.082       .  S
C296        C297   1.431       .  A
C296        S300   1.798       .  S
C297        C298   1.389       .  A
C298        C299   1.384       .  A
C298        H305   1.073       .  S
C299        S301   1.821       .  S
S300        H303   1.406       .  S
S301        H302   1.384       .  S
C306        C307   1.413       .  A
C306        C311   1.423       .  A
C307        C308   1.358       .  A
C307        H316   1.072       .  S
C308        C309   1.413       .  A
C308        S312   1.810       .  S
C309        C310   1.415       .  A
C310        C311   1.420       .  A
C310        H317   1.082       .  S
C311        S313   1.803       .  S
S312        H315   1.348   1_556  S
S313        H314   1.406       .  S
C318        C319   1.420       .  A
C318        C323   1.443       .  A
C319        C320   1.432       .  A
C319        H328   1.079       .  S
C320        C321   1.424       .  A
C320        S324   1.803   1_565  S
C321        C322   1.408       .  A
C322        C323   1.394       .  A
C322        H329   1.080       .  S
C323        S325   1.812       .  S
S324        H327   1.408       .  S
S325        H326   1.394       .  S
C330        C331   1.420       .  A
C330        C335   1.442       .  A
C331        C332   1.409       .  A
C331        H340   1.079       .  S
C332        C333   1.412       .  A
C332        S336   1.805       .  S
C333        C334   1.386       .  A
C334        C335   1.378       .  A
C334        H341   1.075       .  S
C335        S337   1.819       .  S
S336        H339   1.403       .  S
S337        H338   1.372       .  S
C342        C343   1.413       .  A
C342        C347   1.450       .  A
C343        C344   1.427       .  A
C343        H352   1.082       .  S
C344        C345   1.434       .  A
C344        S348   1.790       .  S
C345        C346   1.389       .  A
C346        C347   1.394       .  A
C346        H353   1.081   1_655  S
C347        S349   1.798       .  S
S348        H351   1.408       .  S
S349        H350   1.395       .  S
C354        C355   1.401       .  A
C354        C359   1.402       .  A
C355        C356   1.411       .  A
C355        H364   1.082       .  S
C356        C357   1.432       .  A
C356        S360   1.799       .  S
C357        C358   1.429       .  A
C358        C359   1.393       .  A
C358        H365   1.076       .  S
C359        S361   1.806       .  S
S360        H363   1.406       .  S
S361        H362   1.408       .  S
C366        C367   1.397       .  A
C366        C371   1.406       .  A
C367        C368   1.403       .  A
C367        H376   1.083       .  S
C368        C369   1.433       .  A
C368        S372   1.798       .  S
C369        C370   1.424       .  A
C370        C371   1.398       .  A
C370        H377   1.078       .  S
C371        S373   1.804       .  S
S372        H375   1.407       .  S
S373        H374   1.407       .  S
C378        C379   1.390       .  A
C378        C383   1.398       .  A
C379        C380   1.402       .  A
C379        H388   1.085       .  S
C380        C381   1.446       .  A
C380        S384   1.803       .  S
C381        C382   1.419       .  A
C382        C383   1.389       .  A
C382        H389   1.072       .  S
C383        S385   1.805       .  S
S384        H387   1.371       .  S
S385        H386   1.407       .  S
C390        C391   1.400       .  A
C390        C395   1.396       .  A
C391        C392   1.402       .  A
C391        H400   1.084       .  S
C392        C393   1.436       .  A
C392        S396   1.809       .  S
C393        C394   1.427       .  A
C394        C395   1.385       .  A
C394        H401   1.072       .  S
C395        S397   1.807       .  S
S396        H399   1.384       .  S
S397        H398   1.408       .  S
C402        C403   1.417       .  A
C402        C407   1.454       .  A
C403        C404   1.402       .  A
C403        H412   1.077       .  S
C404        C405   1.411       .  A
C404        S408   1.800       .  S
C405        C406   1.394       .  A
C406        C407   1.404       .  A
C406        H413   1.083       .  S
C407        S409   1.819       .  S
S408        H411   1.408       .  S
S409        H410   1.408       .  S
C414        C415   1.423       .  A
C414        C419   1.443       .  A
C415        C416   1.393       .  A
C415        H424   1.076       .  S
C416        C417   1.402       .  A
C416        S420   1.798       .  S
C417        C418   1.398       .  A
C418        C419   1.403       .  A
C418        H425   1.084       .  S
C419        S421   1.811       .  S
S420        H423   1.407       .  S
S421        H422   1.386       .  S
C426        C427   1.393       .  A
C426        C431   1.405       .  A
C427        C428   1.404       .  A
C427        H436   1.084       .  S
C428        C429   1.443       .  A
C428        S432   1.813       .  S
C429        C430   1.416       .  A
C430        C431   1.405       .  A
C430        H437   1.080       .  S
C431        S433   1.804       .  S
S432        H435   1.407       .  S
S433        H434   1.405       .  S
C438        C439   1.421       .  A
C438        C443   1.426       .  A
C439        C440   1.395       .  A
C439        H448   1.079       .  S
C440        C441   1.410       .  A
C440        S444   1.798       .  S
C441        C442   1.402       .  A
C442        C443   1.398       .  A
C442        H449   1.084       .  S
C443        S445   1.795       .  S
S444        H447   1.402       .  S
S445        H446   1.407       .  S
