geometry optimzed in LAMMPS
_audit_creation_date              2020-12-01 
_audit_creation_method            'lammps2cif' 
_symmetry_space_group_name_H-M    'P1' 
_symmetry_Int_Tables_number       1 
_symmetry_cell_setting            triclinic 
loop_ 
_symmetry_equiv_pos_as_xyz 
  x,y,z 
_cell_length_a                    32.61569429 
_cell_length_b                    32.57959665741922 
_cell_length_c                    31.75217380344536 
_cell_angle_alpha                 90.7472250410979 
_cell_angle_beta                  91.25676541212479 
_cell_angle_gamma                 91.17200657981955 
loop_ 
_atom_site_label 
_atom_site_type_symbol 
_atom_site_fract_x 
_atom_site_fract_y 
_atom_site_fract_z 
_atom_site_charge 
O1          O  0.46630376  0.41977159  0.47153981    -0.81700
O2          O  0.05376345  0.08242017  0.47576613    -0.81800
O3          O  0.41684167  0.05032968  0.46429602    -0.81800
O4          O  0.10182622  0.46665826  0.47463222    -0.81700
O5          O  0.47372280  0.08191283  0.44664243    -0.81800
O6          O  0.04219392  0.44217859  0.45192547    -0.81800
O7          O  0.05696280  0.02668540  0.43905497    -0.81700
O8          O  0.43782566  0.47340307  0.44178621    -0.81800
C9          C  0.44364379  0.43536364  0.44279099     1.07900
C10         C  0.06548268  0.06463527  0.44352749     1.07800
C11         C  0.43558748  0.07500611  0.44149148     1.08000
C12         C  0.08163822  0.44258422  0.44937501     1.07800
O13         O  0.03553710  0.40069969  0.02569511    -0.81700
O14         O  0.45150067  0.08669467  0.03155947    -0.81800
O15         O  0.42069512  0.44968289  0.02389896    -0.81800
O16         O  0.08245086  0.03590638  0.02917763    -0.81700
O17         O  0.02861901  0.06572448  0.05682596    -0.81800
O18         O  0.47652316  0.44688761  0.06098686    -0.81800
O19         O  0.06027993  0.46021582  0.04808599    -0.81700
O20         O  0.42043478  0.02972072  0.04999202    -0.81800
Co21       Co  0.00930825  0.45012225  0.50725609     1.51500
Co22       Co  0.50123979  0.07291063  0.00249270     1.51700
Co23       Co  0.43010775  0.50143868  0.49526645     1.51600
Co24       Co  0.05268990  0.99334094  0.99250692     1.51500
O25         O  0.99290457  0.50995712  0.49942412    -1.43700
C26         C  0.05976327  0.42075741  0.05085063     1.07900
C27         C  0.42676498  0.06796583  0.05430756     1.08000
C28         C  0.43845106  0.43894582  0.05682610     1.07900
C29         C  0.06651679  0.05864983  0.05736392     1.07900
C30         C  0.09071147  0.09008933  0.41367573     0.84900
C31         C  0.13711857  0.08327615  0.41754897    -0.55400
C32         C  0.15995787  0.10752553  0.39154940     0.07800
C33         C  0.13366633  0.13567902  0.36356330     0.18800
C34         C  0.08620092  0.13734960  0.42069419    -0.56100
C35         C  0.10876446  0.16160785  0.39447636     0.07900
C36         C  0.07966806  0.08269315  0.36740361    -0.55600
C37         C  0.10212818  0.10644710  0.34118228     0.08500
H38         H  0.15057226  0.06223509  0.43993174     0.13000
H39         H  0.15210601  0.15370504  0.34119808    -0.01300
H40         H  0.06617118  0.15032525  0.44399302     0.13300
H41         H  0.05623522  0.06072747  0.35626793     0.13100
C42         C  0.10289103  0.41481284  0.41739518     0.84900
C43         C  0.09437342  0.36834050  0.42374712    -0.55400
C44         C  0.11443582  0.34286046  0.39645228     0.07800
C45         C  0.14152157  0.36707789  0.36552612     0.18800
C46         C  0.14974289  0.41944657  0.42030796    -0.56100
C47         C  0.17010096  0.39463373  0.39339704     0.07900
C48         C  0.09195217  0.42186650  0.37020823    -0.55600
C49         C  0.11256051  0.39698453  0.34271696     0.08500
H50         H  0.07391796  0.35697356  0.44764859     0.13000
H51         H  0.15872190  0.34743001  0.34373739    -0.01300
H52         H  0.16567721  0.44015137  0.44249615     0.13300
H53         H  0.07092135  0.44520404  0.35967615     0.13100
C54         C  0.08770034  0.39937080  0.08284529     0.84900
C55         C  0.13403997  0.40854546  0.07668998    -0.55400
C56         C  0.16005120  0.38842728  0.10390736     0.07800
C57         C  0.13604334  0.36087704  0.13475652     0.18800
C58         C  0.08356336  0.35256848  0.07973223    -0.56100
C59         C  0.10888306  0.33211799  0.10644320     0.07900
C60         C  0.08063118  0.40970777  0.12991768    -0.55600
C61         C  0.10627417  0.38973459  0.15755787     0.08500
H62         H  0.14472617  0.42941003  0.05277715     0.13000
H63         H  0.15531351  0.34323063  0.15653135    -0.01300
H64         H  0.06211266  0.33682965  0.05813683     0.13300
H65         H  0.05799321  0.43144067  0.14015170     0.13100
C66         C  0.09229091  0.08277185  0.08826349     0.84900
C67         C  0.08831997  0.12927920  0.08108873    -0.55400
C68         C  0.11078022  0.15354522  0.10889526     0.07800
C69         C  0.13484198  0.12833826  0.14126869     0.18800
C70         C  0.13817436  0.07497246  0.08696585    -0.56100
C71         C  0.16045935  0.09908990  0.11469329     0.07900
C72         C  0.08050554  0.07614727  0.13409806    -0.55600
C73         C  0.10270554  0.10041776  0.16175366     0.08500
H74         H  0.06878203  0.14148771  0.05634198     0.13000
H75         H  0.15370173  0.14659260  0.16445603    -0.01300
H76         H  0.15202354  0.05397930  0.06482874     0.13300
H77         H  0.05645489  0.05492185  0.14370929     0.13100
C78         C  0.40955595  0.09848127  0.41130503     0.84900
C79         C  0.41491178  0.14460927  0.41805216    -0.55400
C80         C  0.39110715  0.16674245  0.39163889     0.07800
C81         C  0.36350496  0.14105735  0.36132365     0.18800
C82         C  0.36279511  0.09000525  0.41573833    -0.56100
C83         C  0.33856990  0.11252176  0.38969913     0.07900
C84         C  0.41765166  0.09044860  0.36464622    -0.55600
C85         C  0.39334953  0.11284430  0.33824294     0.08500
H86         H  0.43611334  0.15864799  0.44115981     0.13000
H87         H  0.34395623  0.15969733  0.34033198    -0.01300
H88         H  0.34981975  0.06910333  0.43847133     0.13300
H89         H  0.44086675  0.06965919  0.35371540     0.13100
C90         C  0.40316154  0.09373252  0.08413605     0.84900
C91         C  0.35700903  0.08680571  0.07914879    -0.55400
C92         C  0.33512566  0.11042678  0.10573879     0.07800
C93         C  0.36139487  0.13933814  0.13433458     0.18800
C94         C  0.41007175  0.14067105  0.07834074    -0.56100
C95         C  0.38819125  0.16475670  0.10473975     0.07900
C96         C  0.41321534  0.08643364  0.13067180    -0.55600
C97         C  0.39149083  0.11073717  0.15713473     0.08500
H98         H  0.34290846  0.06490578  0.05685717     0.13000
H99         H  0.34268850  0.15779416  0.15589738    -0.01300
H100        H  0.43003817  0.15376137  0.05490852     0.13300
H101        H  0.43606131  0.06494628  0.14145630     0.13100
C102        C  0.41318441  0.41376655  0.08684021     0.84900
C103        C  0.41923464  0.36743044  0.08135917    -0.55400
C104        C  0.39522632  0.34384059  0.10669664     0.07800
C105        C  0.36783528  0.36938465  0.13560935     0.18800
C106        C  0.36598400  0.41932796  0.08033076    -0.56100
C107        C  0.34170332  0.39587533  0.10576206     0.07900
C108        C  0.42126794  0.42300444  0.13351016    -0.55600
C109        C  0.39734539  0.39983239  0.15913204     0.08500
H110        H  0.43966928  0.35463837  0.05830098     0.13000
H111        H  0.35053681  0.34998779  0.15752521    -0.01300
H112        H  0.35326930  0.44059344  0.05780216     0.13300
H113        H  0.44332740  0.44608763  0.14519562     0.13100
C114        C  0.41837784  0.40942296  0.41309742     0.84900
C115        C  0.37210665  0.41630287  0.41853575    -0.55400
C116        C  0.34755808  0.39341230  0.39146473     0.07800
C117        C  0.37171481  0.36621240  0.36155362     0.18800
C118        C  0.42353968  0.36333059  0.41785744    -0.56100
C119        C  0.39899570  0.34098426  0.39076131     0.07900
C120        C  0.42628275  0.41829793  0.36668525    -0.55600
C121        C  0.40138113  0.39587082  0.33964691     0.08500
H122        H  0.36000819  0.43679639  0.44228271     0.13000
H123        H  0.35224013  0.34710216  0.33952835    -0.01300
H124        H  0.44408588  0.34940519  0.44069692     0.13300
H125        H  0.44840253  0.44119272  0.35631801     0.13100
C126        C  0.36241451  0.40103698  0.22774296    -0.15000
C127        C  0.39894360  0.40338425  0.20544009     0.07200
C128        C  0.43658360  0.40676371  0.22763569    -0.15000
C129        C  0.43760287  0.40560346  0.27162764    -0.15000
C130        C  0.40098925  0.40091362  0.29366652     0.07200
C131        C  0.36340068  0.39964421  0.27146367    -0.15000
H132        H  0.33302946  0.40006607  0.21138676     0.11200
H133        H  0.46513616  0.40861681  0.21095852     0.11200
H134        H  0.46693066  0.40670045  0.28827827     0.11200
H135        H  0.33471278  0.39737947  0.28791487     0.11200
C136        C  0.42667529  0.23209919  0.09394434    -0.15000
C137        C  0.39054049  0.21072587  0.10494675     0.07200
C138        C  0.35651670  0.23374793  0.11630490    -0.15000
C139        C  0.35792650  0.27655311  0.11588981    -0.15000
C140        C  0.39400975  0.29798043  0.10545791     0.07200
C141        C  0.42844188  0.27519037  0.09437479    -0.15000
H142        H  0.45394172  0.21560782  0.08587904     0.11200
H143        H  0.32827505  0.21900999  0.12517107     0.11200
H144        H  0.33029497  0.29270269  0.12333208     0.11200
H145        H  0.45700674  0.29055943  0.08671516     0.11200
C146        C  0.40533173  0.07504263  0.22572787    -0.15000
C147        C  0.39632584  0.11086151  0.20340243     0.07200
C148        C  0.38934452  0.14726865  0.22568464    -0.15000
C149        C  0.38821085  0.14743916  0.26917113    -0.15000
C150        C  0.39619294  0.11180347  0.29186816     0.07200
C151        C  0.40561986  0.07561325  0.26982195    -0.15000
H152        H  0.41068677  0.04640663  0.20925661     0.11200
H153        H  0.38407739  0.17583324  0.20961664     0.11200
H154        H  0.38055524  0.17577250  0.28456164     0.11200
H155        H  0.41149940  0.04748011  0.28648577     0.11200
C156        C  0.38413030  0.23352365  0.42816188    -0.15000
C157        C  0.39306720  0.21136684  0.39157124     0.07200
C158        C  0.40524793  0.23183376  0.35532066    -0.15000
C159        C  0.40649489  0.27441639  0.35480232    -0.15000
C160        C  0.39720141  0.29650404  0.39118819     0.07200
C161        C  0.38641767  0.27616080  0.42803682    -0.15000
H162        H  0.37529394  0.21781964  0.45653526     0.11200
H163        H  0.41515464  0.21505178  0.32804510     0.11200
H164        H  0.41570489  0.29013052  0.32654646     0.11200
H165        H  0.37929213  0.29330886  0.45632252     0.11200
C166        C  0.22519177  0.13940045  0.11715382    -0.15000
C167        C  0.20526752  0.10100087  0.11479064     0.07200
C168        C  0.22808004  0.06532581  0.10966648    -0.14200
C169        C  0.27055437  0.06824994  0.10663504    -0.15000
C170        C  0.29040154  0.10688620  0.10854511     0.07200
C171        C  0.26740890  0.14223498  0.11389851    -0.15000
H172        H  0.20803417  0.16738903  0.11992765     0.11200
H173        H  0.21306597  0.03535485  0.10798569     0.11200
H174        H  0.28787250  0.04044289  0.10313927     0.11200
H175        H  0.28176175  0.17225893  0.11432231     0.11200
C176        C  0.12063230  0.26572054  0.14390031    -0.15000
C177        C  0.11058922  0.28643226  0.10675660     0.07200
C178        C  0.10217731  0.26314666  0.06980707    -0.15000
C179        C  0.10268010  0.22027662  0.07033377    -0.15000
C180        C  0.11178342  0.19942039  0.10780144     0.07200
C181        C  0.12161772  0.22287691  0.14430777    -0.15000
H182        H  0.12678164  0.28240340  0.17310923     0.11200
H183        H  0.09557632  0.27797234  0.04021259     0.11200
H184        H  0.09640488  0.20366059  0.04112550     0.11200
H185        H  0.12929920  0.20855656  0.17375894     0.11200
C186        C  0.23029177  0.37684030  0.13770434    -0.15000
C187        C  0.20666234  0.39193954  0.10384225     0.07200
C188        C  0.22842652  0.40947692  0.07025862    -0.15000
C189        C  0.27180408  0.41128764  0.07072083    -0.15000
C190        C  0.29510187  0.39564149  0.10479038     0.07200
C191        C  0.27313480  0.37865746  0.13817260    -0.15000
H192        H  0.21649285  0.36333385  0.16474438     0.11200
H193        H  0.21226698  0.42116815  0.04301035     0.11200
H194        H  0.28680248  0.42421138  0.04376714     0.11200
H195        H  0.28845537  0.36650921  0.16549457     0.11200
C196        C  0.14566125  0.39317189  0.27197073    -0.15000
C197        C  0.11011221  0.39924367  0.29528563     0.07200
C198        C  0.07304544  0.40539728  0.27271342    -0.15000
C199        C  0.07150954  0.40341274  0.22810254    -0.15000
C200        C  0.10704517  0.39542735  0.20497729     0.07200
C201        C  0.14415409  0.39148341  0.22785648    -0.15000
H202        H  0.17507775  0.38978929  0.28787848     0.11200
H203        H  0.04503555  0.41029986  0.28954657     0.11200
H204        H  0.04231627  0.40684067  0.21183142     0.11200
H205        H  0.17251547  0.38729441  0.21176162     0.11200
C206        C  0.23622235  0.35765978  0.38498980    -0.15000
C207        C  0.21558697  0.39446589  0.39184908     0.07200
C208        C  0.23869558  0.43104564  0.39819617    -0.15000
C209        C  0.28151887  0.43073681  0.39819795    -0.15000
C210        C  0.30212257  0.39389307  0.39157918     0.07200
C211        C  0.27909887  0.35739066  0.38481865    -0.15000
H212        H  0.21930031  0.32891058  0.38076808     0.11200
H213        H  0.22366475  0.46003700  0.40280850     0.11200
H214        H  0.29851274  0.45940811  0.40280360     0.11200
H215        H  0.29424685  0.32844131  0.38031185     0.11200
C216        C  0.09282012  0.13970458  0.27223788    -0.15000
C217        C  0.09731451  0.10375216  0.29525179     0.07200
C218        C  0.09904570  0.06570371  0.27416089    -0.15000
C219        C  0.09882625  0.06411456  0.23018887    -0.15000
C220        C  0.09676988  0.10056368  0.20733478     0.07200
C221        C  0.09241575  0.13808952  0.22850936    -0.15000
H222        H  0.08979425  0.16899943  0.28806797     0.11200
H223        H  0.10236116  0.03760226  0.29166979     0.11200
H224        H  0.10215905  0.03486438  0.21413879     0.11200
H225        H  0.08905759  0.16617745  0.21120971     0.11200
C226        C  0.22828866  0.07273347  0.39939896    -0.15000
C227        C  0.20574913  0.10826341  0.39140255     0.07200
C228        C  0.22729055  0.14503829  0.38328225    -0.15000
C229        C  0.27017875  0.14626797  0.38269391    -0.15000
C230        C  0.29276886  0.11077098  0.39026230     0.07200
C231        C  0.27129173  0.07397104  0.39883349    -0.15000
H232        H  0.21271289  0.04379860  0.40539436     0.11200
H233        H  0.21107807  0.17326560  0.37820553     0.11200
H234        H  0.28562060  0.17536515  0.37719256     0.11200
H235        H  0.28766757  0.04592070  0.40442557     0.11200
C236        C  0.10016476  0.23080606  0.43232852    -0.15000
C237        C  0.10910505  0.20814686  0.39552107     0.07200
C238        C  0.11878167  0.23056409  0.35934711    -0.15000
C239        C  0.11940544  0.27363852  0.35964579    -0.15000
C240        C  0.11129388  0.29640823  0.39642553     0.07200
C241        C  0.10134614  0.27417633  0.43279664    -0.15000
H242        H  0.09313314  0.21515152  0.46119668     0.11200
H243        H  0.12549405  0.21511527  0.33015032     0.11200
H244        H  0.12582588  0.28889231  0.33042817     0.11200
H245        H  0.09527066  0.29018300  0.46198264     0.11200
O246        O  0.46630353  0.41977201  0.97153981    -0.81700
O247        O  0.05376301  0.08242008  0.97576612    -0.81800
O248        O  0.41684138  0.05032923  0.96429581    -0.81800
O249        O  0.10182630  0.46665819  0.97463214    -0.81700
O250        O  0.47372244  0.08191264  0.94664244    -0.81800
O251        O  0.04219387  0.44217875  0.95192542    -0.81800
O252        O  0.05696255  0.02668527  0.93905507    -0.81700
O253        O  0.43782530  0.47340351  0.94178630    -0.81800
C254        C  0.44364342  0.43536407  0.94279107     1.07900
C255        C  0.06548224  0.06463517  0.94352753     1.07800
C256        C  0.43558711  0.07500586  0.94149146     1.08000
C257        C  0.08163816  0.44258422  0.94937493     1.07800
O258        O  0.03553715  0.40069956  0.52569507    -0.81700
O259        O  0.45150096  0.08669494  0.53155945    -0.81800
O260        O  0.42069519  0.44968247  0.52389886    -0.81800
O261        O  0.08245110  0.03590630  0.52917756    -0.81700
O262        O  0.02861932  0.06572441  0.55682599    -0.81800
O263        O  0.47652319  0.44688731  0.56098685    -0.81800
O264        O  0.06027987  0.46021571  0.54808604    -0.81700
O265        O  0.42043535  0.02972097  0.54999229    -0.81800
Co266      Co  0.00930826  0.45012242  0.00725609     1.51500
Co267      Co  0.50124004  0.07291070  0.50249265     1.51700
Co268      Co  0.43010779  0.50143913  0.99526663     1.51600
Co269      Co  0.05269002  0.99334100  0.49250679     1.51500
O270        O  0.99290477  0.50995726  0.99942405    -1.43700
C271        C  0.05976330  0.42075728  0.55085058     1.07900
C272        C  0.42676545  0.06796608  0.55430776     1.08000
C273        C  0.43845106  0.43894561  0.55682611     1.07900
C274        C  0.06651706  0.05864969  0.55736394     1.07900
C275        C  0.09071093  0.09008927  0.91367577     0.84900
C276        C  0.13711801  0.08327614  0.91754904    -0.55400
C277        C  0.15995726  0.10752556  0.89154944     0.07800
C278        C  0.13366566  0.13567898  0.86356333     0.18800
C279        C  0.08620027  0.13734953  0.92069421    -0.56100
C280        C  0.10876376  0.16160781  0.89447635     0.07900
C281        C  0.07966751  0.08269299  0.86740369    -0.55600
C282        C  0.10212757  0.10644698  0.84118234     0.08500
H283        H  0.15057170  0.06223508  0.93993178     0.13000
H284        H  0.15210533  0.15370501  0.84119808    -0.01300
H285        H  0.06617049  0.15032517  0.94399300     0.13300
H286        H  0.05623474  0.06072720  0.85626806     0.13100
C287        C  0.10289082  0.41481276  0.91739509     0.84900
C288        C  0.09437305  0.36834043  0.92374703    -0.55400
C289        C  0.11443538  0.34286034  0.89645220     0.07800
C290        C  0.14152122  0.36707764  0.86552603     0.18800
C291        C  0.14974267  0.41944628  0.92030787    -0.56100
C292        C  0.17010067  0.39463344  0.89339694     0.07900
C293        C  0.09195202  0.42186642  0.87020809    -0.55600
C294        C  0.11256027  0.39698435  0.84271684     0.08500
H295        H  0.07391760  0.35697354  0.94764852     0.13000
H296        H  0.15872148  0.34742969  0.84373736    -0.01300
H297        H  0.16567706  0.44015110  0.94249611     0.13300
H298        H  0.07092137  0.44520410  0.85967599     0.13100
C299        C  0.08770040  0.39937066  0.58284516     0.84900
C300        C  0.13404003  0.40854501  0.57668958    -0.55400
C301        C  0.16005120  0.38842681  0.60390702     0.07800
C302        C  0.13604333  0.36087684  0.63475643     0.18800
C303        C  0.08356316  0.35256831  0.57973230    -0.56100
C304        C  0.10888282  0.33211782  0.60644332     0.07900
C305        C  0.08063151  0.40970790  0.62991750    -0.55600
C306        C  0.10627436  0.38973466  0.65755772     0.08500
H307        H  0.14472625  0.42940932  0.55277659     0.13000
H308        H  0.15531348  0.34323044  0.65653123    -0.01300
H309        H  0.06211246  0.33682953  0.55813696     0.13300
H310        H  0.05799366  0.43144106  0.64015148     0.13100
C311        C  0.09229120  0.08277164  0.58826358     0.84900
C312        C  0.08832020  0.12927898  0.58108887    -0.55400
C313        C  0.11078044  0.15354501  0.60889541     0.07800
C314        C  0.13484222  0.12833806  0.64126884     0.18800
C315        C  0.13817464  0.07497228  0.58696593    -0.56100
C316        C  0.16045959  0.09908975  0.61469340     0.07900
C317        C  0.08050581  0.07614700  0.63409814    -0.55600
C318        C  0.10270579  0.10041748  0.66175377     0.08500
H319        H  0.06878223  0.14148748  0.55634218     0.13000
H320        H  0.15370203  0.14659239  0.66445616    -0.01300
H321        H  0.15202385  0.05397922  0.56482879     0.13300
H322        H  0.05645513  0.05492162  0.64370934     0.13100
C323        C  0.40955546  0.09848123  0.91130522     0.84900
C324        C  0.41491131  0.14460918  0.91805269    -0.55400
C325        C  0.39110663  0.16674256  0.89163966     0.07800
C326        C  0.36350440  0.14105769  0.86132424     0.18800
C327        C  0.36279459  0.09000522  0.91573858    -0.56100
C328        C  0.33856934  0.11252192  0.88969953     0.07900
C329        C  0.41765106  0.09044890  0.86464633    -0.55600
C330        C  0.39334887  0.11284474  0.83824323     0.08500
H331        H  0.43611305  0.15864773  0.94116026     0.13000
H332        H  0.34395565  0.15969785  0.84033276    -0.01300
H333        H  0.34981928  0.06910319  0.93847148     0.13300
H334        H  0.44086607  0.06965950  0.85371530     0.13100
C335        C  0.40316182  0.09373272  0.58413616     0.84900
C336        C  0.35700932  0.08680584  0.57914855    -0.55400
C337        C  0.33512574  0.11042691  0.60573834     0.07800
C338        C  0.36139469  0.13933827  0.63433434     0.18800
C339        C  0.41007198  0.14067121  0.57834090    -0.56100
C340        C  0.38819129  0.16475683  0.60473972     0.07900
C341        C  0.41321527  0.08643388  0.63067205    -0.55600
C342        C  0.39149047  0.11073735  0.65713478     0.08500
H343        H  0.34290892  0.06490591  0.55685682     0.13000
H344        H  0.34268810  0.15779426  0.65589694    -0.01300
H345        H  0.43003856  0.15376157  0.55490877     0.13300
H346        H  0.43606120  0.06494654  0.64145675     0.13100
C347        C  0.41318435  0.41376655  0.58684033     0.84900
C348        C  0.41923491  0.36743047  0.58135974    -0.55400
C349        C  0.39522654  0.34384066  0.60669717     0.07800
C350        C  0.36783525  0.36938475  0.63560956     0.18800
C351        C  0.36598391  0.41932763  0.58033057    -0.56100
C352        C  0.34170326  0.39587501  0.60576194     0.07900
C353        C  0.42126754  0.42300490  0.63351021    -0.55600
C354        C  0.39734504  0.39983291  0.65913218     0.08500
H355        H  0.43966969  0.35463836  0.55830170     0.13000
H356        H  0.35053680  0.34998784  0.65752546    -0.01300
H357        H  0.35326916  0.44059285  0.55780178     0.13300
H358        H  0.44332681  0.44608842  0.64519558     0.13100
C359        C  0.41837746  0.40942329  0.91309758     0.84900
C360        C  0.37210622  0.41630281  0.91853608    -0.55400
C361        C  0.34755775  0.39341204  0.89146510     0.07800
C362        C  0.37171462  0.36621239  0.86155385     0.18800
C363        C  0.42353969  0.36333096  0.91785750    -0.56100
C364        C  0.39899581  0.34098444  0.89076147     0.07900
C365        C  0.42628209  0.41829844  0.86668542    -0.55600
C366        C  0.40138061  0.39587118  0.83964707     0.08500
H367        H  0.36000767  0.43679630  0.94228298     0.13000
H368        H  0.35224002  0.34710203  0.83952864    -0.01300
H369        H  0.44408603  0.34940569  0.94069693     0.13300
H370        H  0.44840158  0.44119352  0.85631817     0.13100
C371        C  0.36241397  0.40103701  0.72774304    -0.15000
C372        C  0.39894300  0.40338511  0.70544021     0.07200
C373        C  0.43658292  0.40676562  0.72763590    -0.15000
C374        C  0.43760212  0.40560526  0.77162785    -0.15000
C375        C  0.40098859  0.40091425  0.79366667     0.07200
C376        C  0.36340007  0.39964410  0.77146372    -0.15000
H377        H  0.33302887  0.40006544  0.71138672     0.11200
H378        H  0.46513543  0.40861954  0.71095882     0.11200
H379        H  0.46692989  0.40670306  0.78827852     0.11200
H380        H  0.33471216  0.39737865  0.78791488     0.11200
C381        C  0.42667538  0.23209926  0.59394461    -0.15000
C382        C  0.39054049  0.21072596  0.60494682     0.07200
C383        C  0.35651668  0.23374799  0.61630484    -0.15000
C384        C  0.35792647  0.27655321  0.61588988    -0.15000
C385        C  0.39400986  0.29798050  0.60545827     0.07200
C386        C  0.42844202  0.27519046  0.59437526    -0.15000
H387        H  0.45394180  0.21560794  0.58587935     0.11200
H388        H  0.32827492  0.21901006  0.62517087     0.11200
H389        H  0.33029501  0.29270274  0.62333205     0.11200
H390        H  0.45700693  0.29055950  0.58671592     0.11200
C391        C  0.40533095  0.07504292  0.72572811    -0.15000
C392        C  0.39632500  0.11086171  0.70340257     0.07200
C393        C  0.38934332  0.14726880  0.72568473    -0.15000
C394        C  0.38820955  0.14743939  0.76917121    -0.15000
C395        C  0.39619196  0.11180384  0.79186838     0.07200
C396        C  0.40561901  0.07561361  0.76982220    -0.15000
H397        H  0.41068625  0.04640692  0.70925694     0.11200
H398        H  0.38407606  0.17583338  0.70961669     0.11200
H399        H  0.38055360  0.17577268  0.78456161     0.11200
H400        H  0.41149863  0.04748054  0.78648607     0.11200
C401        C  0.38413170  0.23352392  0.92816305    -0.15000
C402        C  0.39306705  0.21136696  0.89157203     0.07200
C403        C  0.40524668  0.23183374  0.85532100    -0.15000
C404        C  0.40649387  0.27441636  0.85480250    -0.15000
C405        C  0.39720167  0.29650418  0.89118865     0.07200
C406        C  0.38641925  0.27616108  0.92803780    -0.15000
H407        H  0.37529633  0.21782003  0.95653684     0.11200
H408        H  0.41515241  0.21505165  0.82804512     0.11200
H409        H  0.41570296  0.29013032  0.82654626     0.11200
H410        H  0.37929470  0.29330923  0.95632375     0.11200
C411        C  0.22519183  0.13940055  0.61715275    -0.15000
C412        C  0.20526771  0.10100089  0.61479056     0.07200
C413        C  0.22808031  0.06532580  0.60966700    -0.14200
C414        C  0.27055458  0.06824998  0.60663525    -0.15000
C415        C  0.29040163  0.10688629  0.60854446     0.07200
C416        C  0.26740892  0.14223516  0.61389714    -0.15000
H417        H  0.20803407  0.16738915  0.61992606     0.11200
H418        H  0.21306628  0.03535476  0.60798689     0.11200
H419        H  0.28787280  0.04044288  0.60313998     0.11200
H420        H  0.28176172  0.17225912  0.61432012     0.11200
C421        C  0.12063225  0.26572038  0.64390037    -0.15000
C422        C  0.11058897  0.28643207  0.60675673     0.07200
C423        C  0.10217697  0.26314645  0.56980720    -0.15000
C424        C  0.10267999  0.22027638  0.57033390    -0.15000
C425        C  0.11178347  0.19942019  0.60780156     0.07200
C426        C  0.12161777  0.22287674  0.64430790    -0.15000
H427        H  0.12678171  0.28240324  0.67310929     0.11200
H428        H  0.09557581  0.27797207  0.54021278     0.11200
H429        H  0.09640483  0.20366037  0.54112564     0.11200
H430        H  0.12929933  0.20855647  0.67375899     0.11200
C431        C  0.23029172  0.37684007  0.63770412    -0.15000
C432        C  0.20666232  0.39193880  0.60384181     0.07200
C433        C  0.22842649  0.40947553  0.57025778    -0.15000
C434        C  0.27180408  0.41128636  0.57072014    -0.15000
C435        C  0.29510181  0.39564086  0.60479004     0.07200
C436        C  0.27313471  0.37865718  0.63817242    -0.15000
H437        H  0.21649274  0.36333400  0.66474442     0.11200
H438        H  0.21226701  0.42116616  0.54300933     0.11200
H439        H  0.28680251  0.42420973  0.54376629     0.11200
H440        H  0.28845527  0.36650924  0.66549457     0.11200
C441        C  0.14566113  0.39317125  0.77197067    -0.15000
C442        C  0.11011209  0.39924351  0.79528548     0.07200
C443        C  0.07304553  0.40539779  0.77271314    -0.15000
C444        C  0.07150973  0.40341332  0.72810227    -0.15000
C445        C  0.10704532  0.39542736  0.70497713     0.07200
C446        C  0.14415405  0.39148283  0.72785644    -0.15000
H447        H  0.17507752  0.38978831  0.78787848     0.11200
H448        H  0.04503562  0.41030086  0.78954623     0.11200
H449        H  0.04231657  0.40684174  0.71183106     0.11200
H450        H  0.17251548  0.38729347  0.71176166     0.11200
C451        C  0.23622204  0.35765955  0.88498951    -0.15000
C452        C  0.21558665  0.39446562  0.89184886     0.07200
C453        C  0.23869526  0.43104537  0.89819590    -0.15000
C454        C  0.28151853  0.43073654  0.89819793    -0.15000
C455        C  0.30212224  0.39389276  0.89157936     0.07200
C456        C  0.27909854  0.35739038  0.88481855    -0.15000
H457        H  0.21929997  0.32891032  0.88076762     0.11200
H458        H  0.22366439  0.46003680  0.90280813     0.11200
H459        H  0.29851239  0.45940781  0.90280366     0.11200
H460        H  0.29424652  0.32844105  0.88031170     0.11200
C461        C  0.09281955  0.13970439  0.77223789    -0.15000
C462        C  0.09731399  0.10375199  0.79525185     0.07200
C463        C  0.09904542  0.06570351  0.77416105    -0.15000
C464        C  0.09882624  0.06411433  0.73018897    -0.15000
C465        C  0.09676990  0.10056345  0.70733486     0.07200
C466        C  0.09241545  0.13808927  0.72850935    -0.15000
H467        H  0.08979350  0.16899918  0.78806790     0.11200
H468        H  0.10236085  0.03760216  0.79166993     0.11200
H469        H  0.10215924  0.03486422  0.71413900     0.11200
H470        H  0.08905734  0.16617719  0.71120964     0.11200
C471        C  0.22828803  0.07273352  0.89939887    -0.15000
C472        C  0.20574850  0.10826350  0.89140256     0.07200
C473        C  0.22728990  0.14503843  0.88328239    -0.15000
C474        C  0.27017811  0.14626814  0.88269423    -0.15000
C475        C  0.29276827  0.11077114  0.89026259     0.07200
C476        C  0.27129112  0.07397116  0.89883348    -0.15000
H477        H  0.21271230  0.04379867  0.90539413     0.11200
H478        H  0.21107739  0.17326571  0.87820571     0.11200
H479        H  0.28561995  0.17536537  0.87719303     0.11200
H480        H  0.28766698  0.04592078  0.90442542     0.11200
C481        C  0.10016397  0.23080604  0.93232846    -0.15000
C482        C  0.10910429  0.20814682  0.89552100     0.07200
C483        C  0.11878088  0.23056402  0.85934701    -0.15000
C484        C  0.11940479  0.27363844  0.85964572    -0.15000
C485        C  0.11129335  0.29640816  0.89642548     0.07200
C486        C  0.10134549  0.27417630  0.93279655    -0.15000
H487        H  0.09313226  0.21515154  0.96119655     0.11200
H488        H  0.12549314  0.21511518  0.83015023     0.11200
H489        H  0.12582524  0.28889224  0.83042807     0.11200
H490        H  0.09527000  0.29018302  0.96198260     0.11200
O491        O  0.46633122  0.91976418  0.47149848    -0.81700
O492        O  0.05373913  0.58242686  0.47579613    -0.81800
O493        O  0.41681453  0.55034083  0.46435536    -0.81800
O494        O  0.10185197  0.96665997  0.47460162    -0.81700
O495        O  0.47369720  0.58191302  0.44668856    -0.81800
O496        O  0.04222165  0.94217924  0.45188905    -0.81800
O497        O  0.05693991  0.52668909  0.43908881    -0.81700
O498        O  0.43786139  0.97339449  0.44173649    -0.81800
C499        C  0.44367601  0.93535506  0.44274559     1.07900
C500        C  0.06545795  0.56464035  0.44355777     1.07800
C501        C  0.43556099  0.57501116  0.44154438     1.08000
C502        C  0.08166627  0.94258727  0.44934149     1.07800
O503        O  0.03555953  0.90069799  0.02565725    -0.81700
O504        O  0.45148629  0.58669861  0.03161003    -0.81800
O505        O  0.42071314  0.94967631  0.02384888    -0.81800
O506        O  0.08243627  0.53591068  0.02920669    -0.81700
O507        O  0.02860620  0.56572489  0.05686180    -0.81800
O508        O  0.47653840  0.94688214  0.06094252    -0.81800
O509        O  0.06029603  0.96021559  0.04805119    -0.81700
O510        O  0.42042140  0.52972715  0.05005032    -0.81800
Co511      Co  0.00933025  0.95011915  0.50721638     1.51500
Co512      Co  0.50122072  0.57291294  0.00253356     1.51700
Co513      Co  0.43013137  0.00143115  0.49521308     1.51600
Co514      Co  0.05266923  0.49334359  0.99254190     1.51500
O515        O  0.99292565  0.00995375  0.49938407    -1.43700
C516        C  0.05978040  0.92075778  0.05081629     1.07900
C517        C  0.42675207  0.56797262  0.05436257     1.08000
C518        C  0.43846582  0.93894241  0.05677924     1.07900
C519        C  0.06650442  0.55865415  0.05739425     1.07900
C520        C  0.09068803  0.59009343  0.41370319     0.84900
C521        C  0.13709487  0.58327921  0.41757963    -0.55400
C522        C  0.15993694  0.60752530  0.39157912     0.07800
C523        C  0.13364799  0.63567604  0.36358786     0.18800
C524        C  0.08618008  0.63735576  0.42071649    -0.56100
C525        C  0.10874610  0.66160968  0.39449529     0.07900
C526        C  0.07964721  0.58269391  0.36742997    -0.55600
C527        C  0.10210975  0.60644550  0.34120824     0.08500
H528        H  0.15054600  0.56224060  0.43996642     0.13000
H529        H  0.15208863  0.65369763  0.34122006    -0.01300
H530        H  0.06615121  0.65033543  0.44401380     0.13300
H531        H  0.05621413  0.56072873  0.35629382     0.13100
C532        C  0.10291999  0.91481708  0.41736267     0.84900
C533        C  0.09439998  0.86834740  0.42372011    -0.55400
C534        C  0.11445682  0.84286243  0.39642714     0.07800
C535        C  0.14154098  0.86707448  0.36549334     0.18800
C536        C  0.14977289  0.91944884  0.42026915    -0.56100
C537        C  0.17012738  0.89463224  0.39335712     0.07900
C538        C  0.09197614  0.92186806  0.37017732    -0.55600
C539        C  0.11257949  0.89698330  0.34268545     0.08500
H540        H  0.07394522  0.85698556  0.44762472     0.13000
H541        H  0.15873497  0.84742178  0.34370357    -0.01300
H542        H  0.16570946  0.94015640  0.44245289     0.13300
H543        H  0.07094725  0.94520777  0.35964636     0.13100
C544        C  0.08771360  0.89937477  0.08281500     0.84900
C545        C  0.13405295  0.90854488  0.07665768    -0.55400
C546        C  0.16006287  0.88842923  0.10387778     0.07800
C547        C  0.13605388  0.86088478  0.13473141     0.18800
C548        C  0.08357154  0.85257339  0.07970966    -0.56100
C549        C  0.10888815  0.83212511  0.10642461     0.07900
C550        C  0.08064581  0.90972003  0.12988605    -0.55600
C551        C  0.10628803  0.88974865  0.15752888     0.08500
H552        H  0.14473983  0.92940682  0.05274293     0.13000
H553        H  0.15532424  0.84323814  0.15650672    -0.01300
H554        H  0.06211694  0.83683315  0.05811925     0.13300
H555        H  0.05800967  0.93145620  0.14011684     0.13100
C556        C  0.09227821  0.58278073  0.08829007     0.84900
C557        C  0.08829669  0.62928632  0.08111435    -0.55400
C558        C  0.11075255  0.65355688  0.10891969     0.07800
C559        C  0.13482114  0.62835725  0.14129341     0.18800
C560        C  0.13816387  0.57499152  0.08699075    -0.56100
C561        C  0.16044474  0.59911406  0.11471804     0.07900
C562        C  0.08049604  0.57615479  0.13412529    -0.55600
C563        C  0.10269164  0.60043029  0.16177956     0.08500
H564        H  0.06875608  0.64149065  0.05636735     0.13000
H565        H  0.15367622  0.64661742  0.16448001    -0.01300
H566        H  0.15201643  0.55399890  0.06485547     0.13300
H567        H  0.05645079  0.55492388  0.14373816     0.13100
C568        C  0.40953273  0.59848569  0.41135672     0.84900
C569        C  0.41488753  0.64461412  0.41810481    -0.55400
C570        C  0.39108731  0.66674517  0.39168607     0.07800
C571        C  0.36348967  0.64106075  0.36136781     0.18800
C572        C  0.36277217  0.59000891  0.41578308    -0.56100
C573        C  0.33855019  0.61252455  0.38973973     0.07900
C574        C  0.41763645  0.59045348  0.36469948    -0.55600
C575        C  0.39333989  0.61285102  0.33829314     0.08500
H576        H  0.43608913  0.65865433  0.44121155     0.13000
H577        H  0.34394714  0.65970100  0.34037018    -0.01300
H578        H  0.34979513  0.56910776  0.43851570     0.13300
H579        H  0.44085488  0.56966616  0.35377186     0.13100
C580        C  0.40315181  0.59374428  0.08419144     0.84900
C581        C  0.35699786  0.58682217  0.07921035    -0.55400
C582        C  0.33511835  0.61044847  0.10580015     0.07800
C583        C  0.36139420  0.63936178  0.13438934     0.18800
C584        C  0.41006631  0.64068125  0.07839017    -0.56100
C585        C  0.38819105  0.66477279  0.10478771     0.07900
C586        C  0.41320872  0.58645027  0.13072688    -0.55600
C587        C  0.39148972  0.61075973  0.15718927     0.08500
H588        H  0.34289357  0.56492078  0.05692266     0.13000
H589        H  0.34269404  0.65782481  0.15595239    -0.01300
H590        H  0.43003226  0.65376726  0.05495491     0.13300
H591        H  0.43605278  0.56496101  0.14151178     0.13100
C592        C  0.41319483  0.91377365  0.08679897     0.84900
C593        C  0.41924338  0.86743526  0.08133467    -0.55400
C594        C  0.39523459  0.84385562  0.10668113     0.07800
C595        C  0.36784503  0.86941028  0.13558471     0.18800
C596        C  0.36599418  0.91933494  0.08028794    -0.56100
C597        C  0.34171343  0.89589235  0.10572964     0.07900
C598        C  0.42127902  0.92302692  0.13346572    -0.55600
C599        C  0.39735642  0.89986426  0.15909538     0.08500
H600        H  0.43967827  0.85463360  0.05828221     0.13000
H601        H  0.35054693  0.85002056  0.15750753    -0.01300
H602        H  0.35327985  0.94059297  0.05775143     0.13300
H603        H  0.44334138  0.94611083  0.14514371     0.13100
C604        C  0.41841145  0.90941485  0.41305172     0.84900
C605        C  0.37213938  0.91629890  0.41848397    -0.55400
C606        C  0.34759108  0.89340903  0.39141132     0.07800
C607        C  0.37175039  0.86620610  0.36150446     0.18800
C608        C  0.42356913  0.86332293  0.41781467    -0.56100
C609        C  0.39902616  0.84097792  0.39071730     0.07900
C610        C  0.42632290  0.91828757  0.36664127    -0.55600
C611        C  0.40142153  0.89586304  0.33960142     0.08500
H612        H  0.36004037  0.93679424  0.44222894     0.13000
H613        H  0.35227805  0.84709634  0.33947652    -0.01300
H614        H  0.44410721  0.84939636  0.44066132     0.13300
H615        H  0.44844336  0.94118279  0.35627592     0.13100
C616        C  0.36243699  0.90108551  0.22771022    -0.15000
C617        C  0.39896289  0.90342163  0.20540145     0.07200
C618        C  0.43660805  0.90678008  0.22758939    -0.15000
C619        C  0.43763504  0.90560485  0.27158028    -0.15000
C620        C  0.40102390  0.90092055  0.29362413     0.07200
C621        C  0.36343081  0.89967695  0.27142981    -0.15000
H622        H  0.33304906  0.90013003  0.21135869     0.11200
H623        H  0.46515775  0.90862420  0.21090635     0.11200
H624        H  0.46696574  0.90668412  0.28822560     0.11200
H625        H  0.33474580  0.89741791  0.28788692     0.11200
C626        C  0.42668562  0.73210893  0.09398928    -0.15000
C627        C  0.39054463  0.71074142  0.10498455     0.07200
C628        C  0.35651911  0.73376973  0.11632048    -0.15000
C629        C  0.35792978  0.77657380  0.11588971    -0.15000
C630        C  0.39401786  0.79799552  0.10546217     0.07200
C631        C  0.42845382  0.77520014  0.09440323    -0.15000
H632        H  0.45395397  0.71561251  0.08594065     0.11200
H633        H  0.32827125  0.71903437  0.12518251     0.11200
H634        H  0.33029686  0.79272829  0.12331555     0.11200
H635        H  0.45702201  0.79056590  0.08674866     0.11200
C636        C  0.40532245  0.57506063  0.22577857    -0.15000
C637        C  0.39632871  0.61088424  0.20345621     0.07200
C638        C  0.38936350  0.64729409  0.22574055    -0.15000
C639        C  0.38823376  0.64746300  0.26922816    -0.15000
C640        C  0.39619695  0.61181951  0.29192057     0.07200
C641        C  0.40561067  0.57562769  0.26987189    -0.15000
H642        H  0.41066504  0.54642309  0.20930529     0.11200
H643        H  0.38410420  0.67586049  0.20967273     0.11200
H644        H  0.38059295  0.67579921  0.28462443     0.11200
H645        H  0.41147697  0.54749038  0.28653339     0.11200
C646        C  0.38404844  0.73354534  0.42814891    -0.15000
C647        C  0.39306421  0.71136651  0.39159655     0.07200
C648        C  0.40533419  0.73180754  0.35536272    -0.15000
C649        C  0.40658977  0.77438966  0.35481758    -0.15000
C650        C  0.39721558  0.79649981  0.39116426     0.07200
C651        C  0.38634407  0.77618156  0.42799953    -0.15000
H652        H  0.37514465  0.71785913  0.45651007     0.11200
H653        H  0.41529847  0.71500416  0.32812306     0.11200
H654        H  0.41586741  0.79008578  0.32657512     0.11200
H655        H  0.37915928  0.79334878  0.45625523     0.11200
C656        C  0.22517940  0.63942488  0.11719871    -0.15000
C657        C  0.20525394  0.60102570  0.11482616     0.07200
C658        C  0.22806807  0.56535066  0.10971166    -0.14200
C659        C  0.27054388  0.56827385  0.10669480    -0.15000
C660        C  0.29039285  0.60690991  0.10860981     0.07200
C661        C  0.26739805  0.64225726  0.11395984    -0.15000
H662        H  0.20802116  0.66741332  0.11996787     0.11200
H663        H  0.21305384  0.53537975  0.10802661     0.11200
H664        H  0.28786193  0.54046623  0.10320360     0.11200
H665        H  0.28175231  0.67228408  0.11439105     0.11200
C666        C  0.12060372  0.76573585  0.14390568    -0.15000
C667        C  0.11057937  0.78644019  0.10675248     0.07200
C668        C  0.10216795  0.76314838  0.06980729    -0.15000
C669        C  0.10266069  0.72027905  0.07034486    -0.15000
C670        C  0.11175155  0.69943034  0.10781975     0.07200
C671        C  0.12157590  0.72289190  0.14432507    -0.15000
H672        H  0.12674921  0.78242573  0.17311137     0.11200
H673        H  0.09557800  0.77796870  0.04020739     0.11200
H674        H  0.09639057  0.70365756  0.04113872     0.11200
H675        H  0.12924025  0.70857456  0.17378281     0.11200
C676        C  0.23030379  0.87685927  0.13768159    -0.15000
C677        C  0.20667337  0.89194527  0.10381388     0.07200
C678        C  0.22843575  0.90947600  0.07022556    -0.15000
C679        C  0.27181278  0.91129184  0.07068764    -0.15000
C680        C  0.29511213  0.89565897  0.10476224     0.07200
C681        C  0.27314689  0.87868486  0.13815161    -0.15000
H682        H  0.21650520  0.86335558  0.16472320     0.11200
H683        H  0.21227535  0.92115662  0.04297288     0.11200
H684        H  0.28680980  0.92420817  0.04372944     0.11200
H685        H  0.28846887  0.86654935  0.16547917     0.11200
C686        C  0.14567683  0.89317061  0.27193911    -0.15000
C687        C  0.11013021  0.89924867  0.29525499     0.07200
C688        C  0.07306592  0.90542136  0.27268449    -0.15000
C689        C  0.07152867  0.90344270  0.22807348    -0.15000
C690        C  0.10706085  0.89544546  0.20494736     0.07200
C691        C  0.14416856  0.89148939  0.22782542    -0.15000
H692        H  0.17509250  0.88977746  0.28784542     0.11200
H693        H  0.04505850  0.91033348  0.28951881     0.11200
H694        H  0.04233672  0.90688317  0.21180327     0.11200
H695        H  0.17252846  0.88729517  0.21173064     0.11200
C696        C  0.23625085  0.85766084  0.38492868    -0.15000
C697        C  0.21561516  0.89446517  0.39179958     0.07200
C698        C  0.23872602  0.93104350  0.39815079    -0.15000
C699        C  0.28155001  0.93073426  0.39814933    -0.15000
C700        C  0.30215382  0.89389160  0.39152247     0.07200
C701        C  0.27912804  0.85739136  0.38475423    -0.15000
H702        H  0.21932880  0.82891230  0.38070235     0.11200
H703        H  0.22369656  0.96003447  0.40277053     0.11200
H704        H  0.29854425  0.95940458  0.40276045     0.11200
H705        H  0.29427485  0.82844236  0.38024071     0.11200
C706        C  0.09277134  0.63970263  0.27226624    -0.15000
C707        C  0.09729807  0.60375226  0.29527774     0.07200
C708        C  0.09906880  0.56570877  0.27418475    -0.15000
C709        C  0.09885167  0.56412330  0.23021290    -0.15000
C710        C  0.09675930  0.60057114  0.20736079     0.07200
C711        C  0.09237128  0.63809137  0.22853682    -0.15000
H712        H  0.08971811  0.66899258  0.28809913     0.11200
H713        H  0.10241184  0.53761007  0.29169231     0.11200
H714        H  0.10221313  0.53487830  0.21416104     0.11200
H715        H  0.08899098  0.66617743  0.21123772     0.11200
C716        C  0.22826928  0.57274082  0.39945836    -0.15000
C717        C  0.20572865  0.60826453  0.39143646     0.07200
C718        C  0.22726972  0.64503453  0.38329324    -0.15000
C719        C  0.27015772  0.64626458  0.38270549    -0.15000
C720        C  0.29274884  0.61077319  0.39029838     0.07200
C721        C  0.27127206  0.57397875  0.39889349    -0.15000
H722        H  0.21269495  0.54380934  0.40547249     0.11200
H723        H  0.21105779  0.67325896  0.37819859     0.11200
H724        H  0.28559794  0.67535894  0.37718672     0.11200
H725        H  0.28764753  0.54593188  0.40450479     0.11200
C726        C  0.10015823  0.73081866  0.43233053    -0.15000
C727        C  0.10909195  0.70814896  0.39552839     0.07200
C728        C  0.11877238  0.73055581  0.35934817    -0.15000
C729        C  0.11941024  0.77363039  0.35963682    -0.15000
C730        C  0.11130641  0.79641046  0.39641143     0.07200
C731        C  0.10135231  0.77418893  0.43278808    -0.15000
H732        H  0.09312277  0.71517215  0.46120229     0.11200
H733        H  0.12547769  0.71509870  0.33015385     0.11200
H734        H  0.12583522  0.78887627  0.33041598     0.11200
H735        H  0.09528174  0.79020337  0.46197101     0.11200
O736        O  0.46633141  0.91976389  0.97149860    -0.81700
O737        O  0.05373944  0.58242692  0.97579609    -0.81800
O738        O  0.41681469  0.55034150  0.96435580    -0.81800
O739        O  0.10185196  0.96666000  0.97460183    -0.81700
O740        O  0.47369748  0.58191320  0.94668860    -0.81800
O741        O  0.04222173  0.94217924  0.95188905    -0.81800
O742        O  0.05694022  0.52668918  0.93908873    -0.81700
O743        O  0.43786189  0.97339419  0.94173639    -0.81800
C744        C  0.44367639  0.93535473  0.94274557     1.07900
C745        C  0.06545834  0.56464041  0.94355772     1.07800
C746        C  0.43556126  0.57501143  0.94154448     1.08000
C747        C  0.08166636  0.94258729  0.94934163     1.07800
O748        O  0.03555950  0.90069804  0.52565741    -0.81700
O749        O  0.45148600  0.58669824  0.53160991    -0.81800
O750        O  0.42071305  0.94967660  0.52384900    -0.81800
O751        O  0.08243608  0.53591072  0.52920672    -0.81700
O752        O  0.02860600  0.56572489  0.55686182    -0.81800
O753        O  0.47653838  0.94688217  0.56094248    -0.81800
O754        O  0.06029616  0.96021567  0.54805109    -0.81700
O755        O  0.42042092  0.52972682  0.55005004    -0.81800
Co756      Co  0.00933025  0.95011908  0.00721636     1.51500
Co757      Co  0.50122048  0.57291278  0.50253358     1.51700
Co758      Co  0.43013132  0.00143084  0.99521293     1.51600
Co759      Co  0.05266907  0.49334353  0.49254198     1.51500
O760        O  0.99292551  0.00995364  0.99938408    -1.43700
C761        C  0.05978042  0.92075788  0.55081638     1.07900
C762        C  0.42675169  0.56797228  0.55436234     1.08000
C763        C  0.43846579  0.93894248  0.55677925     1.07900
C764        C  0.06650425  0.55865424  0.55739423     1.07900
C765        C  0.09068856  0.59009349  0.91370323     0.84900
C766        C  0.13709540  0.58327917  0.91757961    -0.55400
C767        C  0.15993750  0.60752524  0.89157913     0.07800
C768        C  0.13364863  0.63567609  0.86358788     0.18800
C769        C  0.08618075  0.63735581  0.92071656    -0.56100
C770        C  0.10874677  0.66160973  0.89449540     0.07900
C771        C  0.07964773  0.58269406  0.86742996    -0.55600
C772        C  0.10211034  0.60644561  0.84120827     0.08500
H773        H  0.15054654  0.56224048  0.93996639     0.13000
H774        H  0.15208926  0.65369763  0.84122013    -0.01300
H775        H  0.06615184  0.65033550  0.94401390     0.13300
H776        H  0.05621459  0.56072901  0.85629382     0.13100
C777        C  0.10292024  0.91481713  0.91736289     0.84900
C778        C  0.09440034  0.86834741  0.92372038    -0.55400
C779        C  0.11445721  0.84286250  0.89642734     0.07800
C780        C  0.14154128  0.86707462  0.86549351     0.18800
C781        C  0.14977314  0.91944901  0.92026934    -0.56100
C782        C  0.17012766  0.89463246  0.89335729     0.07900
C783        C  0.09197634  0.92186811  0.87017756    -0.55600
C784        C  0.11257968  0.89698338  0.84268568     0.08500
H785        H  0.07394571  0.85698553  0.94762500     0.13000
H786        H  0.15873528  0.84742202  0.84370371    -0.01300
H787        H  0.16570967  0.94015665  0.94245305     0.13300
H788        H  0.07094739  0.94520775  0.85964662     0.13100
C789        C  0.08771359  0.89937498  0.58281523     0.84900
C790        C  0.13405294  0.90854525  0.57665811    -0.55400
C791        C  0.16006287  0.88842964  0.60387826     0.07800
C792        C  0.13605387  0.86088506  0.63473175     0.18800
C793        C  0.08357172  0.85257361  0.57970978    -0.56100
C794        C  0.10888827  0.83212536  0.60642478     0.07900
C795        C  0.08064566  0.90972015  0.62988628    -0.55600
C796        C  0.10628791  0.88974887  0.65752914     0.08500
H797        H  0.14473979  0.92940728  0.55274345     0.13000
H798        H  0.15532418  0.84323845  0.65650710    -0.01300
H799        H  0.06211734  0.83683334  0.55811914     0.13300
H800        H  0.05800938  0.93145628  0.64011706     0.13100
C801        C  0.09227808  0.58278094  0.58829003     0.84900
C802        C  0.08829651  0.62928653  0.58111427    -0.55400
C803        C  0.11075241  0.65355712  0.60891965     0.07800
C804        C  0.13482097  0.62835748  0.64129333     0.18800
C805        C  0.13816377  0.57499175  0.58699068    -0.56100
C806        C  0.16044466  0.59911432  0.61471801     0.07900
C807        C  0.08049592  0.57615499  0.63412525    -0.55600
C808        C  0.10269149  0.60043057  0.66177952     0.08500
H809        H  0.06875596  0.64149083  0.55636732     0.13000
H810        H  0.15367602  0.64661769  0.66448003    -0.01300
H811        H  0.15201629  0.55399911  0.56485547     0.13300
H812        H  0.05645074  0.55492406  0.64373814     0.13100
C813        C  0.40953319  0.59848568  0.91135647     0.84900
C814        C  0.41488802  0.64461415  0.91810423    -0.55400
C815        C  0.39108779  0.66674502  0.89168532     0.07800
C816        C  0.36349020  0.64106040  0.86136722     0.18800
C817        C  0.36277263  0.59000888  0.91578278    -0.56100
C818        C  0.33855069  0.61252436  0.88973927     0.07900
C819        C  0.41763702  0.59045317  0.86469932    -0.55600
C820        C  0.39334052  0.61285057  0.83829281     0.08500
H821        H  0.43608951  0.65865452  0.94121093     0.13000
H822        H  0.34394767  0.65970052  0.84036941    -0.01300
H823        H  0.34979556  0.56910785  0.93851543     0.13300
H824        H  0.44085561  0.56966588  0.85377186     0.13100
C825        C  0.40315168  0.59374403  0.58419126     0.84900
C826        C  0.35699771  0.58682208  0.57921049    -0.55400
C827        C  0.33511846  0.61044832  0.60580057     0.07800
C828        C  0.36139462  0.63936159  0.63438956     0.18800
C829        C  0.41006626  0.64068101  0.57838996    -0.56100
C830        C  0.38819132  0.66477257  0.60478773     0.07900
C831        C  0.41320893  0.58644998  0.63072661    -0.55600
C832        C  0.39149023  0.61075946  0.65718918     0.08500
H833        H  0.34289325  0.56492084  0.55692273     0.13000
H834        H  0.34269472  0.65782463  0.65595282    -0.01300
H835        H  0.43003199  0.65376700  0.55495444     0.13300
H836        H  0.43605306  0.56496065  0.64151129     0.13100
C837        C  0.41319488  0.91377358  0.58679896     0.84900
C838        C  0.41924319  0.86743518  0.58133420    -0.55400
C839        C  0.39523448  0.84385543  0.60668067     0.07800
C840        C  0.36784515  0.86941000  0.63558456     0.18800
C841        C  0.36599423  0.91933520  0.58028824    -0.56100
C842        C  0.34171351  0.89589243  0.60572985     0.07900
C843        C  0.42127935  0.92302645  0.63346573    -0.55600
C844        C  0.39735682  0.89986366  0.65909532     0.08500
H845        H  0.43967787  0.85463359  0.55828156     0.13000
H846        H  0.35054710  0.85002017  0.65750737    -0.01300
H847        H  0.35327994  0.94059347  0.55775214     0.13300
H848        H  0.44334188  0.94611023  0.64514383     0.13100
C849        C  0.41841178  0.90941453  0.91305169     0.84900
C850        C  0.37213975  0.91629890  0.91848384    -0.55400
C851        C  0.34759135  0.89340915  0.89141118     0.07800
C852        C  0.37175053  0.86620602  0.86150443     0.18800
C853        C  0.42356911  0.86332258  0.91781479    -0.56100
C854        C  0.39902610  0.84097771  0.89071731     0.07900
C855        C  0.42632343  0.91828706  0.86664121    -0.55600
C856        C  0.40142190  0.89586265  0.83960137     0.08500
H857        H  0.36004084  0.93679429  0.94222878     0.13000
H858        H  0.35227810  0.84709632  0.83947650    -0.01300
H859        H  0.44410704  0.84939592  0.94066147     0.13300
H860        H  0.44844414  0.94118194  0.85627583     0.13100
C861        C  0.36243756  0.90108525  0.72771015    -0.15000
C862        C  0.39896348  0.90342069  0.70540137     0.07200
C863        C  0.43660871  0.90677824  0.72758928    -0.15000
C864        C  0.43763569  0.90560312  0.77158017    -0.15000
C865        C  0.40102444  0.90091988  0.79362406     0.07200
C866        C  0.36343135  0.89967689  0.77142973    -0.15000
H867        H  0.33304962  0.90013024  0.71135860     0.11200
H868        H  0.46515845  0.90862174  0.71090617     0.11200
H869        H  0.46696638  0.90668176  0.78822553     0.11200
H870        H  0.33474630  0.89741849  0.78788686     0.11200
C871        C  0.42668587  0.73210874  0.59398916    -0.15000
C872        C  0.39054491  0.71074120  0.60498453     0.07200
C873        C  0.35651935  0.73376945  0.61632035    -0.15000
C874        C  0.35792985  0.77657353  0.61588929    -0.15000
C875        C  0.39401786  0.79799531  0.60546162     0.07200
C876        C  0.42845390  0.77519998  0.59440285    -0.15000
H877        H  0.45395424  0.71561234  0.58594063     0.11200
H878        H  0.32827156  0.71903410  0.62518246     0.11200
H879        H  0.33029691  0.79272794  0.62331510     0.11200
H880        H  0.45702208  0.79056583  0.58674827     0.11200
C881        C  0.40532328  0.57506033  0.72577835    -0.15000
C882        C  0.39632959  0.61088397  0.70345605     0.07200
C883        C  0.38936476  0.64729393  0.72574039    -0.15000
C884        C  0.38823517  0.64746281  0.76922800    -0.15000
C885        C  0.39619793  0.61181920  0.79192032     0.07200
C886        C  0.40561151  0.57562736  0.76987165    -0.15000
H887        H  0.41066572  0.54642275  0.70930503     0.11200
H888        H  0.38410560  0.67586034  0.70967263     0.11200
H889        H  0.38059471  0.67579914  0.78462436     0.11200
H890        H  0.41147760  0.54749002  0.78653317     0.11200
C891        C  0.38404722  0.73354504  0.92814787    -0.15000
C892        C  0.39306438  0.71136634  0.89159583     0.07200
C893        C  0.40533538  0.73180755  0.85536249    -0.15000
C894        C  0.40659092  0.77438965  0.85481752    -0.15000
C895        C  0.39721555  0.79649964  0.89116397     0.07200
C896        C  0.38634276  0.77618124  0.92799873    -0.15000
H897        H  0.37514249  0.71785868  0.95650866     0.11200
H898        H  0.41530048  0.71500419  0.82812298     0.11200
H899        H  0.41586938  0.79008596  0.82657544     0.11200
H900        H  0.37915697  0.79334832  0.95625419     0.11200
C901        C  0.22517959  0.63942477  0.61720018    -0.15000
C902        C  0.20525391  0.60102574  0.61482644     0.07200
C903        C  0.22806798  0.56535075  0.60971126    -0.14200
C904        C  0.27054383  0.56827381  0.60669468    -0.15000
C905        C  0.29039295  0.60690979  0.60861065     0.07200
C906        C  0.26739829  0.64225711  0.61396167    -0.15000
H907        H  0.20802149  0.66741329  0.61996994     0.11200
H908        H  0.21305365  0.53537985  0.60802537     0.11200
H909        H  0.28786174  0.54046628  0.60320279     0.11200
H910        H  0.28175256  0.67228376  0.61439382     0.11200
C911        C  0.12060374  0.76573601  0.64390568    -0.15000
C912        C  0.11057957  0.78644045  0.60675255     0.07200
C913        C  0.10216821  0.76314868  0.56980726    -0.15000
C914        C  0.10266073  0.72027934  0.57034482    -0.15000
C915        C  0.11175148  0.69943057  0.60781969     0.07200
C916        C  0.12157588  0.72289211  0.64432505    -0.15000
H917        H  0.12674915  0.78242590  0.67311153     0.11200
H918        H  0.09557837  0.77796905  0.54020737     0.11200
H919        H  0.09639051  0.70365787  0.54113866     0.11200
H920        H  0.12924018  0.70857472  0.67378279     0.11200
C921        C  0.23030388  0.87685940  0.63768196    -0.15000
C922        C  0.20667340  0.89194587  0.60381444     0.07200
C923        C  0.22843573  0.90947725  0.57022649    -0.15000
C924        C  0.27181277  0.91129302  0.57068842    -0.15000
C925        C  0.29511220  0.89565933  0.60476262     0.07200
C926        C  0.27314700  0.87868488  0.63815176    -0.15000
H927        H  0.21650537  0.86335545  0.66472334     0.11200
H928        H  0.21227529  0.92115847  0.54297407     0.11200
H929        H  0.28680966  0.92420992  0.54373050     0.11200
H930        H  0.28846910  0.86654894  0.66547918     0.11200
C931        C  0.14567691  0.89317121  0.77193931    -0.15000
C932        C  0.11013021  0.89924875  0.79525523     0.07200
C933        C  0.07306582  0.90542091  0.77268478    -0.15000
C934        C  0.07152846  0.90344228  0.72807376    -0.15000
C935        C  0.10706079  0.89544565  0.70494762     0.07200
C936        C  0.14416859  0.89149007  0.72782560    -0.15000
H937        H  0.17509258  0.88977848  0.78784559     0.11200
H938        H  0.04505828  0.91033270  0.78951915     0.11200
H939        H  0.04233653  0.90688228  0.71180361     0.11200
H940        H  0.17252855  0.88729627  0.71173078     0.11200
C941        C  0.23625114  0.85766109  0.88492895    -0.15000
C942        C  0.21561543  0.89446541  0.89179964     0.07200
C943        C  0.23872631  0.93104378  0.89815066    -0.15000
C944        C  0.28155031  0.93073455  0.89814908    -0.15000
C945        C  0.30215410  0.89389184  0.89152238     0.07200
C946        C  0.27912830  0.85739156  0.88475445    -0.15000
H947        H  0.21932906  0.82891245  0.88070285     0.11200
H948        H  0.22369683  0.96003473  0.90277043     0.11200
H949        H  0.29854457  0.95940487  0.90276006     0.11200
H950        H  0.29427511  0.82844253  0.88024118     0.11200
C951        C  0.09277169  0.63970281  0.77226628    -0.15000
C952        C  0.09729857  0.60375245  0.79527775     0.07200
C953        C  0.09906908  0.56570898  0.77418467    -0.15000
C954        C  0.09885165  0.56412355  0.73021282    -0.15000
C955        C  0.09675921  0.60057141  0.70736075     0.07200
C956        C  0.09237134  0.63809164  0.72853689    -0.15000
H957        H  0.08971856  0.66899284  0.78809928     0.11200
H958        H  0.10241212  0.53761023  0.79169218     0.11200
H959        H  0.10221293  0.53487856  0.71416088     0.11200
H960        H  0.08899096  0.66617773  0.71123784     0.11200
C961        C  0.22826978  0.57274072  0.89945834    -0.15000
C962        C  0.20572921  0.60826447  0.89143640     0.07200
C963        C  0.22727028  0.64503442  0.88329310    -0.15000
C964        C  0.27015827  0.64626443  0.88270512    -0.15000
C965        C  0.29274934  0.61077303  0.89029802     0.07200
C966        C  0.27127260  0.57397863  0.89889338    -0.15000
H967        H  0.21269549  0.54380932  0.90547257     0.11200
H968        H  0.21105837  0.67325890  0.87819855     0.11200
H969        H  0.28559849  0.67535872  0.87718621     0.11200
H970        H  0.28764800  0.54593184  0.90450477     0.11200
C971        C  0.10015890  0.73081865  0.93233065    -0.15000
C972        C  0.10909259  0.70814900  0.89552850     0.07200
C973        C  0.11877294  0.73055590  0.85934824    -0.15000
C974        C  0.11941069  0.77363047  0.85963700    -0.15000
C975        C  0.11130685  0.79641051  0.89641157     0.07200
C976        C  0.10135287  0.77418891  0.93278826    -0.15000
H977        H  0.09312355  0.71517207  0.96120244     0.11200
H978        H  0.12547826  0.71509886  0.83015396     0.11200
H979        H  0.12583563  0.78887644  0.83041609     0.11200
H980        H  0.09528238  0.79020331  0.96197121     0.11200
O981        O  0.96630372  0.41977163  0.47153977    -0.81700
O982        O  0.55376341  0.08242010  0.47576597    -0.81800
O983        O  0.91684163  0.05032974  0.46429603    -0.81800
O984        O  0.60182622  0.46665824  0.47463226    -0.81700
O985        O  0.97372280  0.08191288  0.44664257    -0.81800
O986        O  0.54219393  0.44217857  0.45192548    -0.81800
O987        O  0.55696291  0.02668528  0.43905492    -0.81700
O988        O  0.93782545  0.47340309  0.44178625    -0.81800
C989        C  0.94364369  0.43536366  0.44279100     1.07900
C990        C  0.56548271  0.06463516  0.44352738     1.07800
C991        C  0.93558748  0.07500620  0.44149156     1.08000
C992        C  0.58163821  0.44258416  0.44937505     1.07800
O993        O  0.53553705  0.40069971  0.02569513    -0.81700
O994        O  0.95150055  0.08669469  0.03155946    -0.81800
O995        O  0.92069516  0.44968267  0.02389888    -0.81800
O996        O  0.58245093  0.03590636  0.02917758    -0.81700
O997        O  0.52861909  0.06572448  0.05682590    -0.81800
O998        O  0.97652314  0.44688759  0.06098688    -0.81800
O999        O  0.56027980  0.46021587  0.04808599    -0.81700
O1000       O  0.92043479  0.02972071  0.04999210    -0.81800
Co1001     Co  0.50930830  0.45012226  0.50725609     1.51500
Co1002     Co  0.00123968  0.07291064  0.00249276     1.51700
Co1003     Co  0.93010766  0.50143870  0.49526650     1.51600
Co1004     Co  0.55268998  0.99334093  0.99250685     1.51500
O1005       O  0.49290463  0.50995715  0.49942413    -1.43700
C1006       C  0.55976322  0.42075747  0.05085061     1.07900
C1007       C  0.92676496  0.06796582  0.05430765     1.08000
C1008       C  0.93845105  0.43894574  0.05682611     1.07900
C1009       C  0.56651686  0.05864982  0.05736387     1.07900
C1010       C  0.59071151  0.09008924  0.41367564     0.84900
C1011       C  0.63711859  0.08327602  0.41754883    -0.55400
C1012       C  0.65995790  0.10752550  0.39154936     0.07800
C1013       C  0.63366636  0.13567903  0.36356330     0.18800
C1014       C  0.58620096  0.13734950  0.42069414    -0.56100
C1015       C  0.60876447  0.16160781  0.39447639     0.07900
C1016       C  0.57966810  0.08269312  0.36740352    -0.55600
C1017       C  0.60212823  0.10644713  0.34118224     0.08500
H1018       H  0.65057228  0.06223480  0.43993148     0.13000
H1019       H  0.65210604  0.15370510  0.34119812    -0.01300
H1020       H  0.56617111  0.15032514  0.44399296     0.13300
H1021       H  0.55623526  0.06072745  0.35626781     0.13100
C1022       C  0.60289104  0.41481277  0.41739528     0.84900
C1023       C  0.59437344  0.36834043  0.42374721    -0.55400
C1024       C  0.61443580  0.34286040  0.39645233     0.07800
C1025       C  0.64152153  0.36707784  0.36552615     0.18800
C1026       C  0.64974287  0.41944649  0.42030801    -0.56100
C1027       C  0.67010094  0.39463366  0.39339710     0.07900
C1028       C  0.59195212  0.42186645  0.37020832    -0.55600
C1029       C  0.61256048  0.39698449  0.34271701     0.08500
H1030       H  0.57391805  0.35697344  0.44764872     0.13000
H1031       H  0.65872183  0.34742995  0.34373741    -0.01300
H1032       H  0.66567722  0.44015132  0.44249626     0.13300
H1033       H  0.57092137  0.44520397  0.35967632     0.13100
C1034       C  0.58770036  0.39937093  0.08284526     0.84900
C1035       C  0.63404001  0.40854558  0.07668993    -0.55400
C1036       C  0.66005122  0.38842742  0.10390738     0.07800
C1037       C  0.63604336  0.36087716  0.13475654     0.18800
C1038       C  0.58356338  0.35256861  0.07973223    -0.56100
C1039       C  0.60888304  0.33211813  0.10644322     0.07900
C1040       C  0.58063126  0.40970792  0.12991765    -0.55600
C1041       C  0.60627417  0.38973471  0.15755786     0.08500
H1042       H  0.64472621  0.42941009  0.05277707     0.13000
H1043       H  0.65531350  0.34323075  0.15653134    -0.01300
H1044       H  0.56211269  0.33682979  0.05813682     0.13300
H1045       H  0.55799328  0.43144089  0.14015169     0.13100
C1046       C  0.59229097  0.08277187  0.08826342     0.84900
C1047       C  0.58832003  0.12927924  0.08108861    -0.55400
C1048       C  0.61078027  0.15354527  0.10889517     0.07800
C1049       C  0.63484195  0.12833832  0.14126867     0.18800
C1050       C  0.63817443  0.07497248  0.08696589    -0.56100
C1051       C  0.66045937  0.09908993  0.11469335     0.07900
C1052       C  0.58050551  0.07614733  0.13409797    -0.55600
C1053       C  0.60270545  0.10041781  0.16175360     0.08500
H1054       H  0.56878212  0.14148772  0.05634185     0.13000
H1055       H  0.65370166  0.14659262  0.16445603    -0.01300
H1056       H  0.65202365  0.05397926  0.06482883     0.13300
H1057       H  0.55645477  0.05492193  0.14370915     0.13100
C1058       C  0.90955599  0.09848140  0.41130508     0.84900
C1059       C  0.91491174  0.14460941  0.41805222    -0.55400
C1060       C  0.89110707  0.16674253  0.39163894     0.07800
C1061       C  0.86350501  0.14105742  0.36132362     0.18800
C1062       C  0.86279514  0.09000529  0.41573828    -0.56100
C1063       C  0.83856994  0.11252175  0.38969905     0.07900
C1064       C  0.91765186  0.09044877  0.36464628    -0.55600
C1065       C  0.89334974  0.11284450  0.33824298     0.08500
H1066       H  0.93611333  0.15864820  0.44115980     0.13000
H1067       H  0.84395630  0.15969736  0.34033193    -0.01300
H1068       H  0.84981975  0.06910337  0.43847126     0.13300
H1069       H  0.94086694  0.06965946  0.35371554     0.13100
C1070       C  0.90316157  0.09373250  0.08413619     0.84900
C1071       C  0.85700906  0.08680575  0.07914901    -0.55400
C1072       C  0.83512570  0.11042676  0.10573901     0.07800
C1073       C  0.86139495  0.13933814  0.13433478     0.18800
C1074       C  0.91007178  0.14067102  0.07834094    -0.56100
C1075       C  0.88819134  0.16475667  0.10473995     0.07900
C1076       C  0.91321540  0.08643363  0.13067195    -0.55600
C1077       C  0.89149092  0.11073718  0.15713487     0.08500
H1078       H  0.84290843  0.06490582  0.05685728     0.13000
H1079       H  0.84268862  0.15779418  0.15589762    -0.01300
H1080       H  0.93003821  0.15376137  0.05490865     0.13300
H1081       H  0.93606140  0.06494630  0.14145644     0.13100
C1082       C  0.91318440  0.41376652  0.08684021     0.84900
C1083       C  0.91923460  0.36743040  0.08135917    -0.55400
C1084       C  0.89522628  0.34384055  0.10669662     0.07800
C1085       C  0.86783526  0.36938463  0.13560935     0.18800
C1086       C  0.86598399  0.41932797  0.08033077    -0.56100
C1087       C  0.84170332  0.39587533  0.10576208     0.07900
C1088       C  0.92126794  0.42300440  0.13351016    -0.55600
C1089       C  0.89734541  0.39983237  0.15913204     0.08500
H1090       H  0.93966931  0.35463831  0.05830103     0.13000
H1091       H  0.85053680  0.34998778  0.15752521    -0.01300
H1092       H  0.85326928  0.44059342  0.05780219     0.13300
H1093       H  0.94332743  0.44608762  0.14519562     0.13100
C1094       C  0.91837778  0.40942298  0.41309742     0.84900
C1095       C  0.87210657  0.41630283  0.41853577    -0.55400
C1096       C  0.84755804  0.39341226  0.39146473     0.07800
C1097       C  0.87171477  0.36621241  0.36155360     0.18800
C1098       C  0.92353965  0.36333061  0.41785739    -0.56100
C1099       C  0.89899571  0.34098428  0.39076128     0.07900
C1100       C  0.92628263  0.41829800  0.36668527    -0.55600
C1101       C  0.90138108  0.39587088  0.33964691     0.08500
H1102       H  0.86000808  0.43679630  0.44228274     0.13000
H1103       H  0.85224010  0.34710218  0.33952835    -0.01300
H1104       H  0.94408590  0.34940520  0.44069689     0.13300
H1105       H  0.94840241  0.44119290  0.35631801     0.13100
C1106       C  0.86241451  0.40103698  0.22774296    -0.15000
C1107       C  0.89894354  0.40338424  0.20544008     0.07200
C1108       C  0.93658359  0.40676376  0.22763570    -0.15000
C1109       C  0.93760279  0.40560350  0.27162766    -0.15000
C1110       C  0.90098920  0.40091365  0.29366652     0.07200
C1111       C  0.86340061  0.39964420  0.27146366    -0.15000
H1112       H  0.83302936  0.40006607  0.21138671     0.11200
H1113       H  0.96513606  0.40861693  0.21095858     0.11200
H1114       H  0.96693061  0.40670057  0.28827831     0.11200
H1115       H  0.83471274  0.39737947  0.28791484     0.11200
C1116       C  0.92667535  0.23209913  0.09394452    -0.15000
C1117       C  0.89054057  0.21072581  0.10494694     0.07200
C1118       C  0.85651674  0.23374786  0.11630498    -0.15000
C1119       C  0.85792649  0.27655304  0.11588981    -0.15000
C1120       C  0.89400973  0.29798038  0.10545795     0.07200
C1121       C  0.92844194  0.27519032  0.09437497    -0.15000
H1122       H  0.95394180  0.21560774  0.08587921     0.11200
H1123       H  0.82827510  0.21900990  0.12517112     0.11200
H1124       H  0.83029492  0.29270262  0.12333203     0.11200
H1125       H  0.95700681  0.29055938  0.08671549     0.11200
C1126       C  0.90533178  0.07504272  0.22572796    -0.15000
C1127       C  0.89632600  0.11086165  0.20340253     0.07200
C1128       C  0.88934493  0.14726883  0.22568470    -0.15000
C1129       C  0.88821132  0.14743945  0.26917117    -0.15000
C1130       C  0.89619327  0.11180370  0.29186822     0.07200
C1131       C  0.90561999  0.07561342  0.26982204    -0.15000
H1132       H  0.91068667  0.04640673  0.20925677     0.11200
H1133       H  0.88407792  0.17583352  0.20961661     0.11200
H1134       H  0.88055586  0.17577283  0.28456173     0.11200
H1135       H  0.91149937  0.04748026  0.28648585     0.11200
C1136       C  0.88412974  0.23352372  0.42816164    -0.15000
C1137       C  0.89306714  0.21136688  0.39157121     0.07200
C1138       C  0.90524852  0.23183376  0.35532083    -0.15000
C1139       C  0.90649554  0.27441638  0.35480247    -0.15000
C1140       C  0.89720146  0.29650407  0.39118812     0.07200
C1141       C  0.88641712  0.27616086  0.42803662    -0.15000
H1142       H  0.87529294  0.21781969  0.45653494     0.11200
H1143       H  0.91515568  0.21505169  0.32804546     0.11200
H1144       H  0.91570601  0.29013052  0.32654672     0.11200
H1145       H  0.87929111  0.29330892  0.45632210     0.11200
C1146       C  0.72519183  0.13940045  0.11715414    -0.15000
C1147       C  0.70526755  0.10100089  0.11479090     0.07200
C1148       C  0.72808005  0.06532582  0.10966669    -0.14200
C1149       C  0.77055436  0.06824994  0.10663516    -0.15000
C1150       C  0.79040158  0.10688618  0.10854537     0.07200
C1151       C  0.76740896  0.14223496  0.11389885    -0.15000
H1152       H  0.70803426  0.16738905  0.11992796     0.11200
H1153       H  0.71306599  0.03535486  0.10798584     0.11200
H1154       H  0.78787244  0.04044287  0.10313920     0.11200
H1155       H  0.78176183  0.17225890  0.11432267     0.11200
C1156       C  0.62063233  0.26572064  0.14390025    -0.15000
C1157       C  0.61058917  0.28643238  0.10675663     0.07200
C1158       C  0.60217733  0.26314681  0.06980703    -0.15000
C1159       C  0.60268017  0.22027673  0.07033369    -0.15000
C1160       C  0.61178349  0.19942048  0.10780134     0.07200
C1161       C  0.62161783  0.22287700  0.14430771    -0.15000
H1162       H  0.62678173  0.28240350  0.17310923     0.11200
H1163       H  0.59557640  0.27797249  0.04021260     0.11200
H1164       H  0.59640497  0.20366076  0.04112541     0.11200
H1165       H  0.62929934  0.20855670  0.17375881     0.11200
C1166       C  0.73029180  0.37684036  0.13770435    -0.15000
C1167       C  0.70666236  0.39193967  0.10384229     0.07200
C1168       C  0.72842656  0.40947699  0.07025863    -0.15000
C1169       C  0.77180408  0.41128765  0.07072084    -0.15000
C1170       C  0.79510189  0.39564151  0.10479036     0.07200
C1171       C  0.77313482  0.37865745  0.13817258    -0.15000
H1172       H  0.71649289  0.36333388  0.16474438     0.11200
H1173       H  0.71226699  0.42116819  0.04301032     0.11200
H1174       H  0.78680252  0.42421141  0.04376706     0.11200
H1175       H  0.78845539  0.36650917  0.16549454     0.11200
C1176       C  0.64566119  0.39317190  0.27197075    -0.15000
C1177       C  0.61011215  0.39924374  0.29528566     0.07200
C1178       C  0.57304544  0.40539743  0.27271342    -0.15000
C1179       C  0.57150947  0.40341281  0.22810255    -0.15000
C1180       C  0.60704512  0.39542737  0.20497731     0.07200
C1181       C  0.64415404  0.39148340  0.22785647    -0.15000
H1182       H  0.67507768  0.38978927  0.28787848     0.11200
H1183       H  0.54503549  0.41030012  0.28954663     0.11200
H1184       H  0.54231623  0.40684072  0.21183145     0.11200
H1185       H  0.67251537  0.38729441  0.21176163     0.11200
C1186       C  0.73622232  0.35765968  0.38498988    -0.15000
C1187       C  0.71558695  0.39446580  0.39184921     0.07200
C1188       C  0.73869556  0.43104552  0.39819622    -0.15000
C1189       C  0.78151885  0.43073677  0.39819797    -0.15000
C1190       C  0.80212253  0.39389299  0.39157917     0.07200
C1191       C  0.77909886  0.35739059  0.38481864    -0.15000
H1192       H  0.71930028  0.32891051  0.38076815     0.11200
H1193       H  0.72366470  0.46003696  0.40280848     0.11200
H1194       H  0.79851266  0.45940801  0.40280357     0.11200
H1195       H  0.79424687  0.32844126  0.38031179     0.11200
C1196       C  0.59282025  0.13970471  0.27223785    -0.15000
C1197       C  0.59731454  0.10375225  0.29525175     0.07200
C1198       C  0.59904551  0.06570379  0.27416086    -0.15000
C1199       C  0.59882603  0.06411462  0.23018881    -0.15000
C1200       C  0.59676975  0.10056377  0.20733473     0.07200
C1201       C  0.59241579  0.13808962  0.22850931    -0.15000
H1202       H  0.58979449  0.16899952  0.28806791     0.11200
H1203       H  0.60236082  0.03760233  0.29166971     0.11200
H1204       H  0.60215873  0.03486448  0.21413878     0.11200
H1205       H  0.58905774  0.16617757  0.21120967     0.11200
C1206       C  0.72828865  0.07273349  0.39939886    -0.15000
C1207       C  0.70574915  0.10826340  0.39140254     0.07200
C1208       C  0.72729056  0.14503832  0.38328222    -0.15000
C1209       C  0.77017878  0.14626796  0.38269392    -0.15000
C1210       C  0.79276888  0.11077097  0.39026223     0.07200
C1211       C  0.77129173  0.07397097  0.39883330    -0.15000
H1212       H  0.71271285  0.04379855  0.40539422     0.11200
H1213       H  0.71107813  0.17326558  0.37820546     0.11200
H1214       H  0.78562063  0.17536515  0.37719258     0.11200
H1215       H  0.78766751  0.04592064  0.40442518     0.11200
C1216       C  0.60016465  0.23080601  0.43232856    -0.15000
C1217       C  0.60910500  0.20814683  0.39552107     0.07200
C1218       C  0.61878152  0.23056407  0.35934711    -0.15000
C1219       C  0.61940527  0.27363850  0.35964578    -0.15000
C1220       C  0.61129379  0.29640819  0.39642556     0.07200
C1221       C  0.60134602  0.27417630  0.43279664    -0.15000
H1222       H  0.59313304  0.21515152  0.46119664     0.11200
H1223       H  0.62549386  0.21511527  0.33015031     0.11200
H1224       H  0.62582563  0.28889231  0.33042816     0.11200
H1225       H  0.59527052  0.29018295  0.46198267     0.11200
O1226       O  0.96630356  0.41977198  0.97153978    -0.81700
O1227       O  0.55376312  0.08242006  0.97576608    -0.81800
O1228       O  0.91684126  0.05032921  0.96429584    -0.81800
O1229       O  0.60182618  0.46665819  0.97463215    -0.81700
O1230       O  0.97372233  0.08191268  0.94664255    -0.81800
O1231       O  0.54219378  0.44217874  0.95192540    -0.81800
O1232       O  0.55696261  0.02668526  0.93905499    -0.81700
O1233       O  0.93782533  0.47340348  0.94178629    -0.81800
C1234       C  0.94364346  0.43536405  0.94279105     1.07900
C1235       C  0.56548231  0.06463516  0.94352744     1.07800
C1236       C  0.93558698  0.07500588  0.94149155     1.08000
C1237       C  0.58163808  0.44258421  0.94937494     1.07800
O1238       O  0.53553722  0.40069962  0.52569510    -0.81700
O1239       O  0.95150092  0.08669493  0.53155965    -0.81800
O1240       O  0.92069509  0.44968247  0.52389887    -0.81800
O1241       O  0.58245104  0.03590632  0.52917755    -0.81700
O1242       O  0.52861922  0.06572440  0.55682589    -0.81800
O1243       O  0.97652311  0.44688730  0.56098682    -0.81800
O1244       O  0.56027979  0.46021580  0.54808614    -0.81700
O1245       O  0.92043510  0.02972098  0.54999229    -0.81800
Co1246     Co  0.50930822  0.45012247  0.00725607     1.51500
Co1247     Co  0.00124005  0.07291075  0.50249281     1.51700
Co1248     Co  0.93010785  0.50143899  0.99526668     1.51600
Co1249     Co  0.55269005  0.99334095  0.49250678     1.51500
O1250       O  0.49290471  0.50995735  0.99942404    -1.43700
C1251       C  0.55976329  0.42075738  0.55085066     1.07900
C1252       C  0.92676532  0.06796607  0.55430786     1.08000
C1253       C  0.93845100  0.43894559  0.55682611     1.07900
C1254       C  0.56651695  0.05864971  0.55736390     1.07900
C1255       C  0.59071092  0.09008925  0.91367566     0.84900
C1256       C  0.63711800  0.08327615  0.91754888    -0.55400
C1257       C  0.65995723  0.10752555  0.89154932     0.07800
C1258       C  0.63366564  0.13567900  0.86356321     0.18800
C1259       C  0.58620026  0.13734951  0.92069408    -0.56100
C1260       C  0.60876374  0.16160780  0.89447629     0.07900
C1261       C  0.57966752  0.08269297  0.86740356    -0.55600
C1262       C  0.60212752  0.10644697  0.84118222     0.08500
H1263       H  0.65057174  0.06223507  0.93993165     0.13000
H1264       H  0.65210530  0.15370504  0.84119801    -0.01300
H1265       H  0.56617043  0.15032515  0.94399293     0.13300
H1266       H  0.55623476  0.06072714  0.85626789     0.13100
C1267       C  0.60289079  0.41481274  0.91739511     0.84900
C1268       C  0.59437305  0.36834042  0.92374707    -0.55400
C1269       C  0.61443540  0.34286035  0.89645222     0.07800
C1270       C  0.64152125  0.36707766  0.86552606     0.18800
C1271       C  0.64974266  0.41944632  0.92030791    -0.56100
C1272       C  0.67010068  0.39463347  0.89339698     0.07900
C1273       C  0.59195198  0.42186638  0.87020813    -0.55600
C1274       C  0.61256028  0.39698437  0.84271686     0.08500
H1275       H  0.57391760  0.35697352  0.94764849     0.13000
H1276       H  0.65872152  0.34742971  0.84373740    -0.01300
H1277       H  0.66567702  0.44015108  0.94249613     0.13300
H1278       H  0.57092122  0.44520399  0.85967603     0.13100
C1279       C  0.58770038  0.39937071  0.58284523     0.84900
C1280       C  0.63404003  0.40854510  0.57668966    -0.55400
C1281       C  0.66005120  0.38842683  0.60390706     0.07800
C1282       C  0.63604333  0.36087685  0.63475643     0.18800
C1283       C  0.58356317  0.35256840  0.57973234    -0.56100
C1284       C  0.60888283  0.33211786  0.60644329     0.07900
C1285       C  0.58063145  0.40970791  0.62991759    -0.55600
C1286       C  0.60627435  0.38973461  0.65755775     0.08500
H1287       H  0.64472624  0.42940941  0.55277675     0.13000
H1288       H  0.65531347  0.34323041  0.65653122    -0.01300
H1289       H  0.56211241  0.33682956  0.55813694     0.13300
H1290       H  0.55799367  0.43144102  0.64015160     0.13100
C1291       C  0.59229108  0.08277171  0.58826353     0.84900
C1292       C  0.58832016  0.12927907  0.58108868    -0.55400
C1293       C  0.61078046  0.15354510  0.60889522     0.07800
C1294       C  0.63484217  0.12833818  0.64126871     0.18800
C1295       C  0.63817452  0.07497226  0.58696594    -0.56100
C1296       C  0.66045949  0.09908976  0.61469337     0.07900
C1297       C  0.58050564  0.07614722  0.63409808    -0.55600
C1298       C  0.60270565  0.10041770  0.66175368     0.08500
H1299       H  0.56878225  0.14148753  0.55634204     0.13000
H1300       H  0.65370200  0.14659251  0.66445598    -0.01300
H1301       H  0.65202370  0.05397917  0.56482886     0.13300
H1302       H  0.55645493  0.05492185  0.64370933     0.13100
C1303       C  0.90955539  0.09848128  0.91130529     0.84900
C1304       C  0.91491121  0.14460921  0.91805282    -0.55400
C1305       C  0.89110651  0.16674260  0.89163978     0.07800
C1306       C  0.86350434  0.14105771  0.86132431     0.18800
C1307       C  0.86279451  0.09000517  0.91573857    -0.56100
C1308       C  0.83856928  0.11252189  0.88969951     0.07900
C1309       C  0.91765111  0.09044901  0.86464640    -0.55600
C1310       C  0.89334887  0.11284488  0.83824329     0.08500
H1311       H  0.93611293  0.15864777  0.94116035     0.13000
H1312       H  0.84395557  0.15969786  0.84033280    -0.01300
H1313       H  0.84981919  0.06910312  0.93847137     0.13300
H1314       H  0.94086616  0.06965973  0.85371543     0.13100
C1315       C  0.90316172  0.09373271  0.58413630     0.84900
C1316       C  0.85700923  0.08680591  0.57914862    -0.55400
C1317       C  0.83512562  0.11042695  0.60573836     0.07800
C1318       C  0.86139452  0.13933830  0.63433443     0.18800
C1319       C  0.91007197  0.14067121  0.57834112    -0.56100
C1320       C  0.88819121  0.16475684  0.60473987     0.07900
C1321       C  0.91321510  0.08643384  0.63067219    -0.55600
C1322       C  0.89149027  0.11073734  0.65713488     0.08500
H1323       H  0.84290882  0.06490598  0.55685683     0.13000
H1324       H  0.84268792  0.15779426  0.65589699    -0.01300
H1325       H  0.93003865  0.15376153  0.55490908     0.13300
H1326       H  0.93606104  0.06494656  0.64145694     0.13100
C1327       C  0.91318431  0.41376652  0.58684034     0.84900
C1328       C  0.91923480  0.36743043  0.58135969    -0.55400
C1329       C  0.89522643  0.34384064  0.60669714     0.07800
C1330       C  0.86783519  0.36938473  0.63560956     0.18800
C1331       C  0.86598389  0.41932766  0.58033062    -0.56100
C1332       C  0.84170324  0.39587504  0.60576198     0.07900
C1333       C  0.92126755  0.42300479  0.63351023    -0.55600
C1334       C  0.89734504  0.39983283  0.65913220     0.08500
H1335       H  0.93966955  0.35463830  0.55830165     0.13000
H1336       H  0.85053668  0.34998783  0.65752543    -0.01300
H1337       H  0.85326914  0.44059288  0.55780183     0.13300
H1338       H  0.94332683  0.44608832  0.64519561     0.13100
C1339       C  0.91837748  0.40942329  0.91309757     0.84900
C1340       C  0.87210625  0.41630283  0.91853609    -0.55400
C1341       C  0.84755778  0.39341207  0.89146510     0.07800
C1342       C  0.87171463  0.36621243  0.86155387     0.18800
C1343       C  0.92353971  0.36333097  0.91785748    -0.56100
C1344       C  0.89899578  0.34098444  0.89076148     0.07900
C1345       C  0.92628213  0.41829844  0.86668541    -0.55600
C1346       C  0.90138061  0.39587118  0.83964707     0.08500
H1347       H  0.86000769  0.43679630  0.94228299     0.13000
H1348       H  0.85223996  0.34710207  0.83952866    -0.01300
H1349       H  0.94408606  0.34940571  0.94069690     0.13300
H1350       H  0.94840165  0.44119348  0.85631816     0.13100
C1351       C  0.86241396  0.40103696  0.72774304    -0.15000
C1352       C  0.89894299  0.40338506  0.70544022     0.07200
C1353       C  0.93658287  0.40676558  0.72763591    -0.15000
C1354       C  0.93760212  0.40560527  0.77162786    -0.15000
C1355       C  0.90098858  0.40091420  0.79366666     0.07200
C1356       C  0.86340003  0.39964395  0.77146374    -0.15000
H1357       H  0.83302885  0.40006546  0.71138674     0.11200
H1358       H  0.96513545  0.40861944  0.71095881     0.11200
H1359       H  0.96692983  0.40670309  0.78827848     0.11200
H1360       H  0.83471219  0.39737841  0.78791483     0.11200
C1361       C  0.92667530  0.23209926  0.59394476    -0.15000
C1362       C  0.89054040  0.21072597  0.60494688     0.07200
C1363       C  0.85651659  0.23374805  0.61630481    -0.15000
C1364       C  0.85792637  0.27655322  0.61588981    -0.15000
C1365       C  0.89400979  0.29798050  0.60545833     0.07200
C1366       C  0.92844201  0.27519045  0.59437547    -0.15000
H1367       H  0.95394176  0.21560790  0.58587954     0.11200
H1368       H  0.82827477  0.21901010  0.62517094     0.11200
H1369       H  0.83029488  0.29270281  0.62333188     0.11200
H1370       H  0.95700693  0.29055948  0.58671627     0.11200
C1371       C  0.90533086  0.07504301  0.72572819    -0.15000
C1372       C  0.89632483  0.11086180  0.70340265     0.07200
C1373       C  0.88934323  0.14726891  0.72568476    -0.15000
C1374       C  0.88820939  0.14743952  0.76917124    -0.15000
C1375       C  0.89619191  0.11180398  0.79186844     0.07200
C1376       C  0.90561904  0.07561380  0.76982228    -0.15000
H1377       H  0.91068613  0.04640708  0.70925707     0.11200
H1378       H  0.88407606  0.17583349  0.70961668     0.11200
H1379       H  0.88055338  0.17577282  0.78456161     0.11200
H1380       H  0.91149886  0.04748074  0.78648616     0.11200
C1381       C  0.88413167  0.23352396  0.92816316    -0.15000
C1382       C  0.89306700  0.21136697  0.89157214     0.07200
C1383       C  0.90524664  0.23183377  0.85532114    -0.15000
C1384       C  0.90649368  0.27441635  0.85480255    -0.15000
C1385       C  0.89720156  0.29650421  0.89118873     0.07200
C1386       C  0.88641928  0.27616109  0.92803791    -0.15000
H1387       H  0.87529627  0.21782003  0.95653695     0.11200
H1388       H  0.91515245  0.21505162  0.82804520     0.11200
H1389       H  0.91570267  0.29013035  0.82654627     0.11200
H1390       H  0.87929488  0.29330929  0.95632396     0.11200
C1391       C  0.72519170  0.13940061  0.61715251    -0.15000
C1392       C  0.70526761  0.10100091  0.61479049     0.07200
C1393       C  0.72808021  0.06532582  0.60966701    -0.14200
C1394       C  0.77055449  0.06825000  0.60663530    -0.15000
C1395       C  0.79040152  0.10688637  0.60854439     0.07200
C1396       C  0.76740875  0.14223516  0.61389686    -0.15000
H1397       H  0.70803395  0.16738919  0.61992572     0.11200
H1398       H  0.71306621  0.03535479  0.60798698     0.11200
H1399       H  0.78787271  0.04044295  0.60314013     0.11200
H1400       H  0.78176157  0.17225931  0.61431967     0.11200
C1401       C  0.62063232  0.26572042  0.64390029    -0.15000
C1402       C  0.61058904  0.28643214  0.60675664     0.07200
C1403       C  0.60217709  0.26314656  0.56980714    -0.15000
C1404       C  0.60268007  0.22027651  0.57033373    -0.15000
C1405       C  0.61178354  0.19942028  0.60780141     0.07200
C1406       C  0.62161783  0.22287680  0.64430773    -0.15000
H1407       H  0.62678175  0.28240325  0.67310921     0.11200
H1408       H  0.59557593  0.27797226  0.54021264     0.11200
H1409       H  0.59640488  0.20366054  0.54112553     0.11200
H1410       H  0.62929939  0.20855648  0.67375890     0.11200
C1411       C  0.73029172  0.37684012  0.63770412    -0.15000
C1412       C  0.70666234  0.39193880  0.60384179     0.07200
C1413       C  0.72842651  0.40947553  0.57025776    -0.15000
C1414       C  0.77180411  0.41128637  0.57072012    -0.15000
C1415       C  0.79510181  0.39564093  0.60479005     0.07200
C1416       C  0.77313473  0.37865734  0.63817250    -0.15000
H1417       H  0.71649274  0.36333404  0.66474440     0.11200
H1418       H  0.71226704  0.42116617  0.54300930     0.11200
H1419       H  0.78680255  0.42420970  0.54376625     0.11200
H1420       H  0.78845524  0.36650956  0.66549467     0.11200
C1421       C  0.64566115  0.39317139  0.77197071    -0.15000
C1422       C  0.61011209  0.39924357  0.79528549     0.07200
C1423       C  0.57304549  0.40539774  0.77271318    -0.15000
C1424       C  0.57150969  0.40341318  0.72810229    -0.15000
C1425       C  0.60704528  0.39542729  0.70497717     0.07200
C1426       C  0.64415405  0.39148286  0.72785643    -0.15000
H1427       H  0.67507750  0.38978855  0.78787848     0.11200
H1428       H  0.54503563  0.41030082  0.78954625     0.11200
H1429       H  0.54231651  0.40684148  0.71183109     0.11200
H1430       H  0.67251541  0.38729348  0.71176169     0.11200
C1431       C  0.73622209  0.35765955  0.88498968    -0.15000
C1432       C  0.71558669  0.39446564  0.89184900     0.07200
C1433       C  0.73869532  0.43104536  0.89819613    -0.15000
C1434       C  0.78151858  0.43073654  0.89819815    -0.15000
C1435       C  0.80212228  0.39389277  0.89157944     0.07200
C1436       C  0.77909859  0.35739039  0.88481865    -0.15000
H1437       H  0.71930003  0.32891032  0.88076786     0.11200
H1438       H  0.72366445  0.46003681  0.90280839     0.11200
H1439       H  0.79851245  0.45940780  0.90280391     0.11200
H1440       H  0.79424658  0.32844107  0.88031174     0.11200
C1441       C  0.59281960  0.13970444  0.77223782    -0.15000
C1442       C  0.59731385  0.10375199  0.79525173     0.07200
C1443       C  0.59904501  0.06570353  0.77416083    -0.15000
C1444       C  0.59882600  0.06411446  0.73018881    -0.15000
C1445       C  0.59676988  0.10056360  0.70733475     0.07200
C1446       C  0.59241554  0.13808941  0.72850930    -0.15000
H1447       H  0.58979367  0.16899923  0.78806789     0.11200
H1448       H  0.60236022  0.03760206  0.79166972     0.11200
H1449       H  0.60215893  0.03486428  0.71413870     0.11200
H1450       H  0.58905749  0.16617736  0.71120965     0.11200
C1451       C  0.72828797  0.07273351  0.89939885    -0.15000
C1452       C  0.70574846  0.10826347  0.89140251     0.07200
C1453       C  0.72728985  0.14503842  0.88328238    -0.15000
C1454       C  0.77017808  0.14626808  0.88269423    -0.15000
C1455       C  0.79276821  0.11077108  0.89026257     0.07200
C1456       C  0.77129105  0.07397110  0.89883348    -0.15000
H1457       H  0.71271221  0.04379863  0.90539412     0.11200
H1458       H  0.71107737  0.17326566  0.87820571     0.11200
H1459       H  0.78561994  0.17536530  0.87719304     0.11200
H1460       H  0.78766686  0.04592072  0.90442545     0.11200
C1461       C  0.60016405  0.23080603  0.93232845    -0.15000
C1462       C  0.60910434  0.20814682  0.89552100     0.07200
C1463       C  0.61878087  0.23056405  0.85934701    -0.15000
C1464       C  0.61940464  0.27363847  0.85964568    -0.15000
C1465       C  0.61129328  0.29640816  0.89642546     0.07200
C1466       C  0.60134553  0.27417630  0.93279659    -0.15000
H1467       H  0.59313236  0.21515150  0.96119661     0.11200
H1468       H  0.62549315  0.21511523  0.83015020     0.11200
H1469       H  0.62582496  0.28889227  0.83042804     0.11200
H1470       H  0.59527016  0.29018299  0.96198260     0.11200
O1471       O  0.96633122  0.91976421  0.47149851    -0.81700
O1472       O  0.55373919  0.58242684  0.47579617    -0.81800
O1473       O  0.91681443  0.55034093  0.46435551    -0.81800
O1474       O  0.60185205  0.96665996  0.47460170    -0.81700
O1475       O  0.97369712  0.58191294  0.44668855    -0.81800
O1476       O  0.54222173  0.94217921  0.45188907    -0.81800
O1477       O  0.55693999  0.52668908  0.43908882    -0.81700
O1478       O  0.93786142  0.97339453  0.44173650    -0.81800
C1479       C  0.94367603  0.93535509  0.44274563     1.07900
C1480       C  0.56545802  0.56464034  0.44355780     1.07800
C1481       C  0.93556091  0.57501115  0.44154443     1.08000
C1482       C  0.58166635  0.94258726  0.44934155     1.07800
O1483       O  0.53555960  0.90069799  0.02565726    -0.81700
O1484       O  0.95148628  0.58669838  0.03161004    -0.81800
O1485       O  0.92071314  0.94967627  0.02384895    -0.81800
O1486       O  0.58243625  0.53591067  0.02920671    -0.81700
O1487       O  0.52860620  0.56572489  0.05686182    -0.81800
O1488       O  0.97653842  0.94688212  0.06094254    -0.81800
O1489       O  0.56029612  0.96021560  0.04805112    -0.81700
O1490       O  0.92042150  0.52972692  0.05005047    -0.81800
Co1491     Co  0.50933027  0.95011912  0.50721634     1.51500
Co1492     Co  0.00122071  0.57291283  0.00253355     1.51700
Co1493     Co  0.93013129  0.00143118  0.49521309     1.51600
Co1494     Co  0.55266915  0.49334364  0.99254189     1.51500
O1495       O  0.49292569  0.00995370  0.49938391    -1.43700
C1496       C  0.55978048  0.92075779  0.05081627     1.07900
C1497       C  0.92675211  0.56797241  0.05436266     1.08000
C1498       C  0.93846585  0.93894233  0.05677927     1.07900
C1499       C  0.56650440  0.55865415  0.05739428     1.07900
C1500       C  0.59068809  0.59009342  0.41370324     0.84900
C1501       C  0.63709492  0.58327919  0.41757964    -0.55400
C1502       C  0.65993698  0.60752529  0.39157913     0.07800
C1503       C  0.63364803  0.63567602  0.36358790     0.18800
C1504       C  0.58618019  0.63735572  0.42071656    -0.56100
C1505       C  0.60874616  0.66160966  0.39449537     0.07900
C1506       C  0.57964727  0.58269391  0.36743001    -0.55600
C1507       C  0.60210981  0.60644549  0.34120829     0.08500
H1508       H  0.65054610  0.56224058  0.43996644     0.13000
H1509       H  0.65208871  0.65369762  0.34122010    -0.01300
H1510       H  0.56615136  0.65033541  0.44401398     0.13300
H1511       H  0.55621420  0.56072872  0.35629385     0.13100
C1512       C  0.60292007  0.91481704  0.41736274     0.84900
C1513       C  0.59440003  0.86834735  0.42372026    -0.55400
C1514       C  0.61445691  0.84286237  0.39642725     0.07800
C1515       C  0.64154099  0.86707443  0.36549342     0.18800
C1516       C  0.64977297  0.91944882  0.42026920    -0.56100
C1517       C  0.67012744  0.89463220  0.39335714     0.07900
C1518       C  0.59197618  0.92186803  0.37017742    -0.55600
C1519       C  0.61257948  0.89698323  0.34268552     0.08500
H1520       H  0.57394529  0.85698556  0.44762477     0.13000
H1521       H  0.65873497  0.84742174  0.34370363    -0.01300
H1522       H  0.66570953  0.94015641  0.44245286     0.13300
H1523       H  0.57094733  0.94520777  0.35964651     0.13100
C1524       C  0.58771367  0.89937479  0.08281500     0.84900
C1525       C  0.63405301  0.90854482  0.07665769    -0.55400
C1526       C  0.66006291  0.88842921  0.10387783     0.07800
C1527       C  0.63605390  0.86088482  0.13473149     0.18800
C1528       C  0.58357157  0.85257340  0.07970972    -0.56100
C1529       C  0.60888812  0.83212513  0.10642474     0.07900
C1530       C  0.58064589  0.90972011  0.12988604    -0.55600
C1531       C  0.60628811  0.88974875  0.15752890     0.08500
H1532       H  0.64473991  0.92940676  0.05274290     0.13000
H1533       H  0.65532425  0.84323817  0.15650682    -0.01300
H1534       H  0.56211705  0.83683314  0.05811923     0.13300
H1535       H  0.55800971  0.93145624  0.14011679     0.13100
C1536       C  0.59227821  0.58278072  0.08829014     0.84900
C1537       C  0.58829665  0.62928632  0.08111444    -0.55400
C1538       C  0.61075255  0.65355688  0.10891983     0.07800
C1539       C  0.63482113  0.62835722  0.14129349     0.18800
C1540       C  0.63816386  0.57499152  0.08699076    -0.56100
C1541       C  0.66044475  0.59911404  0.11471809     0.07900
C1542       C  0.58049604  0.57615473  0.13412536    -0.55600
C1543       C  0.60269164  0.60043026  0.16177965     0.08500
H1544       H  0.56875610  0.64149064  0.05636751     0.13000
H1545       H  0.65367623  0.64661743  0.16448011    -0.01300
H1546       H  0.65201642  0.55399898  0.06485545     0.13300
H1547       H  0.55645085  0.55492381  0.14373823     0.13100
C1548       C  0.90953269  0.59848568  0.41135675     0.84900
C1549       C  0.91488760  0.64461411  0.41810477    -0.55400
C1550       C  0.89108740  0.66674519  0.39168604     0.07800
C1551       C  0.86348963  0.64106077  0.36136788     0.18800
C1552       C  0.86277214  0.59000900  0.41578319    -0.56100
C1553       C  0.83855017  0.61252462  0.38973989     0.07900
C1554       C  0.91763630  0.59045340  0.36469948    -0.55600
C1555       C  0.89333973  0.61285096  0.33829316     0.08500
H1556       H  0.93608923  0.65865430  0.44121150     0.13000
H1557       H  0.84394708  0.65970105  0.34037030    -0.01300
H1558       H  0.84979509  0.56910787  0.43851587     0.13300
H1559       H  0.94085469  0.56966607  0.35377185     0.13100
C1560       C  0.90315182  0.59374416  0.08419143     0.84900
C1561       C  0.85699789  0.58682218  0.07921023    -0.55400
C1562       C  0.83511835  0.61044844  0.10579997     0.07800
C1563       C  0.86139416  0.63936172  0.13438927     0.18800
C1564       C  0.91006641  0.64068115  0.07839019    -0.56100
C1565       C  0.88819113  0.66477269  0.10478770     0.07900
C1566       C  0.91320862  0.58645014  0.13072691    -0.55600
C1567       C  0.89148957  0.61075963  0.15718925     0.08500
H1568       H  0.84289359  0.56492082  0.05692241     0.13000
H1569       H  0.84269394  0.65782471  0.15595225    -0.01300
H1570       H  0.93003240  0.65376714  0.05495494     0.13300
H1571       H  0.93605257  0.56496087  0.14151182     0.13100
C1572       C  0.91319488  0.91377354  0.08679902     0.84900
C1573       C  0.91924346  0.86743515  0.08133469    -0.55400
C1574       C  0.89523467  0.84385548  0.10668115     0.07800
C1575       C  0.86784507  0.86941012  0.13558469     0.18800
C1576       C  0.86599422  0.91933485  0.08028799    -0.56100
C1577       C  0.84171346  0.89589216  0.10572962     0.07900
C1578       C  0.92127903  0.92302679  0.13346576    -0.55600
C1579       C  0.89735643  0.89986413  0.15909540     0.08500
H1580       H  0.93967834  0.85463351  0.05828223     0.13000
H1581       H  0.85054700  0.85002035  0.15750751    -0.01300
H1582       H  0.85327989  0.94059297  0.05775166     0.13300
H1583       H  0.94334146  0.94611071  0.14514380     0.13100
C1584       C  0.91841147  0.90941488  0.41305178     0.84900
C1585       C  0.87213941  0.91629896  0.41848402    -0.55400
C1586       C  0.84759114  0.89340903  0.39141137     0.07800
C1587       C  0.87175046  0.86620609  0.36150456     0.18800
C1588       C  0.92356910  0.86332297  0.41781489    -0.56100
C1589       C  0.89902618  0.84097794  0.39071747     0.07900
C1590       C  0.92632297  0.91828753  0.36664133    -0.55600
C1591       C  0.90142160  0.89586299  0.33960148     0.08500
H1592       H  0.86004044  0.93679432  0.44222894     0.13000
H1593       H  0.85227813  0.84709629  0.33947663    -0.01300
H1594       H  0.94410706  0.84939644  0.44066161     0.13300
H1595       H  0.94844344  0.94118273  0.35627595     0.13100
C1596       C  0.86243704  0.90108547  0.22771027    -0.15000
C1597       C  0.89896288  0.90342144  0.20540146     0.07200
C1598       C  0.93660809  0.90677972  0.22758937    -0.15000
C1599       C  0.93763509  0.90560458  0.27158026    -0.15000
C1600       C  0.90102396  0.90092048  0.29362416     0.07200
C1601       C  0.86343083  0.89967696  0.27142984    -0.15000
H1602       H  0.83304901  0.90013008  0.21135870     0.11200
H1603       H  0.96515776  0.90862372  0.21090629     0.11200
H1604       H  0.96696581  0.90668375  0.28822555     0.11200
H1605       H  0.83474586  0.89741800  0.28788697     0.11200
C1606       C  0.92668571  0.73210879  0.09398929    -0.15000
C1607       C  0.89054472  0.71074130  0.10498456     0.07200
C1608       C  0.85651920  0.73376961  0.11632045    -0.15000
C1609       C  0.85792986  0.77657365  0.11588970    -0.15000
C1610       C  0.89401795  0.79799538  0.10546217     0.07200
C1611       C  0.92845392  0.77520001  0.09440322    -0.15000
H1612       H  0.95395405  0.71561236  0.08594066     0.11200
H1613       H  0.82827127  0.71903427  0.12518246     0.11200
H1614       H  0.83029691  0.79272811  0.12331552     0.11200
H1615       H  0.95702208  0.79056576  0.08674866     0.11200
C1616       C  0.90532221  0.57506054  0.22577860    -0.15000
C1617       C  0.89632849  0.61088409  0.20345621     0.07200
C1618       C  0.88936326  0.64729400  0.22574052    -0.15000
C1619       C  0.88823352  0.64746289  0.26922816    -0.15000
C1620       C  0.89619673  0.61181944  0.29192058     0.07200
C1621       C  0.90561046  0.57562759  0.26987190    -0.15000
H1622       H  0.91066481  0.54642291  0.20930529     0.11200
H1623       H  0.88410397  0.67586032  0.20967274     0.11200
H1624       H  0.88059269  0.67579912  0.28462439     0.11200
H1625       H  0.91147676  0.54749032  0.28653341     0.11200
C1626       C  0.88404882  0.73354531  0.42814905    -0.15000
C1627       C  0.89306431  0.71136654  0.39159656     0.07200
C1628       C  0.90533397  0.73180764  0.35536264    -0.15000
C1629       C  0.90658952  0.77438977  0.35481759    -0.15000
C1630       C  0.89721568  0.79649985  0.39116440     0.07200
C1631       C  0.88634445  0.77618155  0.42799974    -0.15000
H1632       H  0.87514528  0.71785907  0.45651023     0.11200
H1633       H  0.91529797  0.71500430  0.32812285     0.11200
H1634       H  0.91586686  0.79008598  0.32657504     0.11200
H1635       H  0.87915989  0.79334867  0.45625551     0.11200
C1636       C  0.72517939  0.63942487  0.11719844    -0.15000
C1637       C  0.70525394  0.60102568  0.11482610     0.07200
C1638       C  0.72806810  0.56535065  0.10971167    -0.14200
C1639       C  0.77054391  0.56827382  0.10669476    -0.15000
C1640       C  0.79039285  0.60690993  0.10860960     0.07200
C1641       C  0.76739803  0.64225726  0.11395952    -0.15000
H1642       H  0.70802111  0.66741335  0.11996752     0.11200
H1643       H  0.71305388  0.53537970  0.10802671     0.11200
H1644       H  0.78786198  0.54046627  0.10320366     0.11200
H1645       H  0.78175227  0.67228410  0.11439064     0.11200
C1646       C  0.62060361  0.76573586  0.14390585    -0.15000
C1647       C  0.61057936  0.78644020  0.10675262     0.07200
C1648       C  0.60216806  0.76314838  0.06980745    -0.15000
C1649       C  0.60266072  0.72027904  0.07034499    -0.15000
C1650       C  0.61175159  0.69943035  0.10781991     0.07200
C1651       C  0.62157595  0.72289191  0.14432523    -0.15000
H1652       H  0.62674892  0.78242577  0.17311158     0.11200
H1653       H  0.59557810  0.77796870  0.04020746     0.11200
H1654       H  0.59639056  0.70365757  0.04113893     0.11200
H1655       H  0.62924035  0.70857459  0.17378295     0.11200
C1656       C  0.73030383  0.87685921  0.13768167    -0.15000
C1657       C  0.70667340  0.89194527  0.10381397     0.07200
C1658       C  0.72843574  0.90947602  0.07022568    -0.15000
C1659       C  0.77181277  0.91129179  0.07068766    -0.15000
C1660       C  0.79511215  0.89565881  0.10476221     0.07200
C1661       C  0.77314695  0.87868474  0.13815161    -0.15000
H1662       H  0.71650529  0.86335547  0.16472323     0.11200
H1663       H  0.71227529  0.92115668  0.04297302     0.11200
H1664       H  0.78680974  0.92420816  0.04372949     0.11200
H1665       H  0.78846895  0.86654922  0.16547912     0.11200
C1666       C  0.64567684  0.89317059  0.27193919    -0.15000
C1667       C  0.61013017  0.89924865  0.29525504     0.07200
C1668       C  0.57306590  0.90542136  0.27268450    -0.15000
C1669       C  0.57152870  0.90344272  0.22807347    -0.15000
C1670       C  0.60706090  0.89544552  0.20494739     0.07200
C1671       C  0.64416858  0.89148941  0.22782547    -0.15000
H1672       H  0.67509241  0.88977744  0.28784545     0.11200
H1673       H  0.54505846  0.91033350  0.28951877     0.11200
H1674       H  0.54233677  0.90688320  0.21180321     0.11200
H1675       H  0.67252852  0.88729520  0.21173073     0.11200
C1676       C  0.73625092  0.85766086  0.38492848    -0.15000
C1677       C  0.71561522  0.89446516  0.39179951     0.07200
C1678       C  0.73872609  0.93104349  0.39815080    -0.15000
C1679       C  0.78155006  0.93073424  0.39814937    -0.15000
C1680       C  0.80215388  0.89389160  0.39152251     0.07200
C1681       C  0.77912811  0.85739137  0.38475417    -0.15000
H1682       H  0.71932890  0.82891233  0.38070200     0.11200
H1683       H  0.72369661  0.96003444  0.40277060     0.11200
H1684       H  0.79854434  0.95940457  0.40276056     0.11200
H1685       H  0.79427494  0.82844237  0.38024069     0.11200
C1686       C  0.59277118  0.63970256  0.27226631    -0.15000
C1687       C  0.59729810  0.60375221  0.29527781     0.07200
C1688       C  0.59906884  0.56570875  0.27418482    -0.15000
C1689       C  0.59885160  0.56412324  0.23021297    -0.15000
C1690       C  0.59675924  0.60057113  0.20736087     0.07200
C1691       C  0.59237115  0.63809133  0.22853692    -0.15000
H1692       H  0.58971785  0.66899253  0.28809924     0.11200
H1693       H  0.60241197  0.53761002  0.29169239     0.11200
H1694       H  0.60221299  0.53487830  0.21416112     0.11200
H1695       H  0.58899082  0.66617742  0.21123783     0.11200
C1696       C  0.72826925  0.57274085  0.39945836    -0.15000
C1697       C  0.70572867  0.60826455  0.39143651     0.07200
C1698       C  0.72726972  0.64503462  0.38329344    -0.15000
C1699       C  0.77015774  0.64626466  0.38270578    -0.15000
C1700       C  0.79274882  0.61077329  0.39029858     0.07200
C1701       C  0.77127208  0.57397875  0.39889361    -0.15000
H1702       H  0.71269493  0.54380937  0.40547241     0.11200
H1703       H  0.71105784  0.67325899  0.37819884     0.11200
H1704       H  0.78559795  0.67535903  0.37718706     0.11200
H1705       H  0.78764746  0.54593200  0.40450486     0.11200
C1706       C  0.60015835  0.73081860  0.43233061    -0.15000
C1707       C  0.60909203  0.70814890  0.39552850     0.07200
C1708       C  0.61877240  0.73055576  0.35934827    -0.15000
C1709       C  0.61941031  0.77363030  0.35963695    -0.15000
C1710       C  0.61130652  0.79641039  0.39641153     0.07200
C1711       C  0.60135241  0.77418886  0.43278823    -0.15000
H1712       H  0.59312289  0.71517204  0.46120245     0.11200
H1713       H  0.62547764  0.71509859  0.33015390     0.11200
H1714       H  0.62583525  0.78887622  0.33041605     0.11200
H1715       H  0.59528184  0.79020328  0.46197106     0.11200
O1716       O  0.96633129  0.91976391  0.97149861    -0.81700
O1717       O  0.55373950  0.58242697  0.97579612    -0.81800
O1718       O  0.91681474  0.55034142  0.96435589    -0.81800
O1719       O  0.60185205  0.96666001  0.97460178    -0.81700
O1720       O  0.97369753  0.58191300  0.94668856    -0.81800
O1721       O  0.54222180  0.94217924  0.95188907    -0.81800
O1722       O  0.55694021  0.52668922  0.93908874    -0.81700
O1723       O  0.93786168  0.97339418  0.94173641    -0.81800
C1724       C  0.94367628  0.93535474  0.94274557     1.07900
C1725       C  0.56545839  0.56464044  0.94355776     1.07800
C1726       C  0.93556130  0.57501131  0.94154450     1.08000
C1727       C  0.58166642  0.94258728  0.94934161     1.07800
O1728       O  0.53555951  0.90069801  0.52565738    -0.81700
O1729       O  0.95148601  0.58669825  0.53160992    -0.81800
O1730       O  0.92071309  0.94967660  0.52384901    -0.81800
O1731       O  0.58243614  0.53591074  0.52920673    -0.81700
O1732       O  0.52860605  0.56572487  0.55686190    -0.81800
O1733       O  0.97653841  0.94688216  0.56094252    -0.81800
O1734       O  0.56029608  0.96021565  0.54805114    -0.81700
O1735       O  0.92042096  0.52972682  0.55005010    -0.81800
Co1736     Co  0.50933032  0.95011908  0.00721637     1.51500
Co1737     Co  0.00122042  0.57291275  0.50253353     1.51700
Co1738     Co  0.93013122  0.00143082  0.99521298     1.51600
Co1739     Co  0.55266909  0.49334355  0.49254201     1.51500
O1740       O  0.49292561  0.00995364  0.99938407    -1.43700
C1741       C  0.55978037  0.92075785  0.55081640     1.07900
C1742       C  0.92675176  0.56797227  0.55436241     1.08000
C1743       C  0.93846583  0.93894248  0.55677926     1.07900
C1744       C  0.56650432  0.55865422  0.55739429     1.07900
C1745       C  0.59068861  0.59009347  0.91370326     0.84900
C1746       C  0.63709545  0.58327919  0.91757971    -0.55400
C1747       C  0.65993755  0.60752533  0.89157928     0.07800
C1748       C  0.63364866  0.63567610  0.86358797     0.18800
C1749       C  0.58618073  0.63735578  0.92071656    -0.56100
C1750       C  0.60874671  0.66160972  0.89449540     0.07900
C1751       C  0.57964786  0.58269398  0.86743000    -0.55600
C1752       C  0.60211044  0.60644555  0.84120832     0.08500
H1753       H  0.65054656  0.56224049  0.93996646     0.13000
H1754       H  0.65208931  0.65369766  0.84122022    -0.01300
H1755       H  0.56615185  0.65033545  0.94401394     0.13300
H1756       H  0.55621475  0.56072882  0.85629383     0.13100
C1757       C  0.60292026  0.91481713  0.91736288     0.84900
C1758       C  0.59440036  0.86834742  0.92372034    -0.55400
C1759       C  0.61445724  0.84286250  0.89642735     0.07800
C1760       C  0.64154132  0.86707464  0.86549351     0.18800
C1761       C  0.64977317  0.91944900  0.92026933    -0.56100
C1762       C  0.67012770  0.89463245  0.89335728     0.07900
C1763       C  0.59197636  0.92186808  0.87017756    -0.55600
C1764       C  0.61257969  0.89698339  0.84268567     0.08500
H1765       H  0.57394563  0.85698552  0.94762496     0.13000
H1766       H  0.65873534  0.84742203  0.84370371    -0.01300
H1767       H  0.66570972  0.94015664  0.94245303     0.13300
H1768       H  0.57094730  0.94520771  0.85964662     0.13100
C1769       C  0.58771355  0.89937494  0.58281524     0.84900
C1770       C  0.63405287  0.90854528  0.57665810    -0.55400
C1771       C  0.66006284  0.88842972  0.60387824     0.07800
C1772       C  0.63605388  0.86088508  0.63473173     0.18800
C1773       C  0.58357174  0.85257355  0.57970975    -0.56100
C1774       C  0.60888833  0.83212534  0.60642477     0.07900
C1775       C  0.58064559  0.90972008  0.62988630    -0.55600
C1776       C  0.60628788  0.88974882  0.65752915     0.08500
H1777       H  0.64473966  0.92940734  0.55274343     0.13000
H1778       H  0.65532421  0.84323847  0.65650708    -0.01300
H1779       H  0.56211741  0.83683329  0.55811912     0.13300
H1780       H  0.55800932  0.93145614  0.64011710     0.13100
C1781       C  0.59227815  0.58278089  0.58829009     0.84900
C1782       C  0.58829657  0.62928650  0.58111438    -0.55400
C1783       C  0.61075247  0.65355708  0.60891976     0.07800
C1784       C  0.63482106  0.62835742  0.64129339     0.18800
C1785       C  0.63816386  0.57499174  0.58699067    -0.56100
C1786       C  0.66044474  0.59911431  0.61471802     0.07900
C1787       C  0.58049606  0.57615489  0.63412530    -0.55600
C1788       C  0.60269161  0.60043043  0.66177959     0.08500
H1789       H  0.56875601  0.64149082  0.55636745     0.13000
H1790       H  0.65367610  0.64661765  0.66448008    -0.01300
H1791       H  0.65201638  0.55399918  0.56485544     0.13300
H1792       H  0.55645089  0.55492386  0.64373822     0.13100
C1793       C  0.90953323  0.59848563  0.91135652     0.84900
C1794       C  0.91488811  0.64461411  0.91810422    -0.55400
C1795       C  0.89108784  0.66674497  0.89168533     0.07800
C1796       C  0.86349023  0.64106035  0.86136727     0.18800
C1797       C  0.86277269  0.59000890  0.91578290    -0.56100
C1798       C  0.83855074  0.61252435  0.88973939     0.07900
C1799       C  0.91763702  0.59045304  0.86469935    -0.55600
C1800       C  0.89334052  0.61285053  0.83829287     0.08500
H1801       H  0.93608961  0.65865448  0.94121092     0.13000
H1802       H  0.84394772  0.65970047  0.84036947    -0.01300
H1803       H  0.84979563  0.56910797  0.93851566     0.13300
H1804       H  0.94085546  0.56966577  0.85377189     0.13100
C1805       C  0.90315180  0.59374402  0.58419136     0.84900
C1806       C  0.85699783  0.58682201  0.57921062    -0.55400
C1807       C  0.83511858  0.61044826  0.60580071     0.07800
C1808       C  0.86139474  0.63936160  0.63438966     0.18800
C1809       C  0.91006633  0.64068100  0.57839002    -0.56100
C1810       C  0.88819140  0.66477258  0.60478776     0.07900
C1811       C  0.91320910  0.58645000  0.63072672    -0.55600
C1812       C  0.89149040  0.61075950  0.65718927     0.08500
H1813       H  0.84289339  0.56492077  0.55692292     0.13000
H1814       H  0.84269489  0.65782463  0.65595291    -0.01300
H1815       H  0.93003204  0.65376700  0.55495446     0.13300
H1816       H  0.93605317  0.56496064  0.64151143     0.13100
C1817       C  0.91319488  0.91377361  0.58679897     0.84900
C1818       C  0.91924313  0.86743520  0.58133423    -0.55400
C1819       C  0.89523435  0.84385549  0.60668069     0.07800
C1820       C  0.86784507  0.86941011  0.63558458     0.18800
C1821       C  0.86599424  0.91933528  0.58028825    -0.56100
C1822       C  0.84171348  0.89589261  0.60572991     0.07900
C1823       C  0.92127936  0.92302644  0.63346573    -0.55600
C1824       C  0.89735681  0.89986371  0.65909533     0.08500
H1825       H  0.93967788  0.85463360  0.55828168     0.13000
H1826       H  0.85054695  0.85002031  0.65750736    -0.01300
H1827       H  0.85327998  0.94059354  0.55775210     0.13300
H1828       H  0.94334193  0.94611024  0.64514384     0.13100
C1829       C  0.91841177  0.90941450  0.91305166     0.84900
C1830       C  0.87213976  0.91629881  0.91848382    -0.55400
C1831       C  0.84759140  0.89340904  0.89141116     0.07800
C1832       C  0.87175060  0.86620595  0.86150438     0.18800
C1833       C  0.92356918  0.86332254  0.91781473    -0.56100
C1834       C  0.89902619  0.84097765  0.89071722     0.07900
C1835       C  0.92632340  0.91828710  0.86664119    -0.55600
C1836       C  0.90142193  0.89586261  0.83960134     0.08500
H1837       H  0.86004083  0.93679422  0.94222874     0.13000
H1838       H  0.85227817  0.84709626  0.83947643    -0.01300
H1839       H  0.94410708  0.84939588  0.94066144     0.13300
H1840       H  0.94844399  0.94118207  0.85627583     0.13100
C1841       C  0.86243755  0.90108543  0.72771017    -0.15000
C1842       C  0.89896343  0.90342076  0.70540138     0.07200
C1843       C  0.93660872  0.90677821  0.72758925    -0.15000
C1844       C  0.93763568  0.90560307  0.77158015    -0.15000
C1845       C  0.90102447  0.90091987  0.79362404     0.07200
C1846       C  0.86343134  0.89967698  0.77142975    -0.15000
H1847       H  0.83304957  0.90013053  0.71135862     0.11200
H1848       H  0.96515838  0.90862159  0.71090616     0.11200
H1849       H  0.96696642  0.90668162  0.78822550     0.11200
H1850       H  0.83474632  0.89741856  0.78788690     0.11200
C1851       C  0.92668583  0.73210885  0.59398909    -0.15000
C1852       C  0.89054492  0.71074123  0.60498454     0.07200
C1853       C  0.85651934  0.73376945  0.61632039    -0.15000
C1854       C  0.85792978  0.77657353  0.61588939    -0.15000
C1855       C  0.89401777  0.79799537  0.60546173     0.07200
C1856       C  0.92845380  0.77520008  0.59440287    -0.15000
H1857       H  0.95395419  0.71561252  0.58594044     0.11200
H1858       H  0.82827158  0.71903403  0.62518249     0.11200
H1859       H  0.83029680  0.79272793  0.62331519     0.11200
H1860       H  0.95702194  0.79056598  0.58674822     0.11200
C1861       C  0.90532323  0.57506026  0.72577844    -0.15000
C1862       C  0.89632972  0.61088398  0.70345616     0.07200
C1863       C  0.88936501  0.64729397  0.72574049    -0.15000
C1864       C  0.88823534  0.64746284  0.76922810    -0.15000
C1865       C  0.89619800  0.61181918  0.79192041     0.07200
C1866       C  0.90561153  0.57562735  0.76987173    -0.15000
H1867       H  0.91066551  0.54642270  0.70930516     0.11200
H1868       H  0.88410601  0.67586037  0.70967270     0.11200
H1869       H  0.88059495  0.67579918  0.78462451     0.11200
H1870       H  0.91147766  0.54748996  0.78653326     0.11200
C1871       C  0.88404686  0.73354498  0.92814776    -0.15000
C1872       C  0.89306437  0.71136630  0.89159579     0.07200
C1873       C  0.90533576  0.73180744  0.85536253    -0.15000
C1874       C  0.90659132  0.77438957  0.85481760    -0.15000
C1875       C  0.89721558  0.79649958  0.89116390     0.07200
C1876       C  0.88634238  0.77618121  0.92799852    -0.15000
H1877       H  0.87514200  0.71785868  0.95650838     0.11200
H1878       H  0.91530110  0.71500412  0.82812327     0.11200
H1879       H  0.91587011  0.79008585  0.82657557     0.11200
H1880       H  0.87915631  0.79334835  0.95625392     0.11200
C1881       C  0.72517970  0.63942471  0.61720024    -0.15000
C1882       C  0.70525399  0.60102571  0.61482644     0.07200
C1883       C  0.72806803  0.56535068  0.60971122    -0.14200
C1884       C  0.77054387  0.56827375  0.60669465    -0.15000
C1885       C  0.79039306  0.60690968  0.60861077     0.07200
C1886       C  0.76739841  0.64225699  0.61396188    -0.15000
H1887       H  0.70802163  0.66741326  0.61996997     0.11200
H1888       H  0.71305364  0.53537983  0.60802524     0.11200
H1889       H  0.78786180  0.54046613  0.60320263     0.11200
H1890       H  0.78175272  0.67228364  0.61439419     0.11200
C1891       C  0.62060384  0.76573603  0.64390574    -0.15000
C1892       C  0.61057967  0.78644043  0.60675257     0.07200
C1893       C  0.60216830  0.76314864  0.56980735    -0.15000
C1894       C  0.60266075  0.72027929  0.57034491    -0.15000
C1895       C  0.61175154  0.69943055  0.60781983     0.07200
C1896       C  0.62157598  0.72289212  0.64432515    -0.15000
H1897       H  0.62674925  0.78242596  0.67311156     0.11200
H1898       H  0.59557844  0.77796901  0.54020740     0.11200
H1899       H  0.59639049  0.70365782  0.54113885     0.11200
H1900       H  0.62924031  0.70857477  0.67378290     0.11200
C1901       C  0.73030381  0.87685954  0.63768193    -0.15000
C1902       C  0.70667335  0.89194605  0.60381446     0.07200
C1903       C  0.72843569  0.90947745  0.57022653    -0.15000
C1904       C  0.77181275  0.91129317  0.57068845    -0.15000
C1905       C  0.79511214  0.89565959  0.60476272     0.07200
C1906       C  0.77314693  0.87868509  0.63815187    -0.15000
H1907       H  0.71650528  0.86335540  0.66472327     0.11200
H1908       H  0.71227526  0.92115865  0.54297408     0.11200
H1909       H  0.78680968  0.92420985  0.54373049     0.11200
H1910       H  0.78846895  0.86654915  0.66547921     0.11200
C1911       C  0.64567690  0.89317122  0.77193928    -0.15000
C1912       C  0.61013024  0.89924876  0.79525523     0.07200
C1913       C  0.57306581  0.90542101  0.77268480    -0.15000
C1914       C  0.57152849  0.90344242  0.72807379    -0.15000
C1915       C  0.60706075  0.89544568  0.70494761     0.07200
C1916       C  0.64416857  0.89149007  0.72782559    -0.15000
H1917       H  0.67509264  0.88977847  0.78784556     0.11200
H1918       H  0.54505836  0.91033280  0.78951920     0.11200
H1919       H  0.54233649  0.90688254  0.71180361     0.11200
H1920       H  0.67252851  0.88729625  0.71173073     0.11200
C1921       C  0.73625117  0.85766104  0.88492890    -0.15000
C1922       C  0.71561550  0.89446539  0.89179965     0.07200
C1923       C  0.73872639  0.93104373  0.89815067    -0.15000
C1924       C  0.78155041  0.93073450  0.89814910    -0.15000
C1925       C  0.80215415  0.89389174  0.89152237     0.07200
C1926       C  0.77912836  0.85739149  0.88475441    -0.15000
H1927       H  0.71932912  0.82891246  0.88070274     0.11200
H1928       H  0.72369694  0.96003472  0.90277044     0.11200
H1929       H  0.79854466  0.95940474  0.90276008     0.11200
H1930       H  0.79427515  0.82844250  0.88024106     0.11200
C1931       C  0.59277199  0.63970275  0.77226632    -0.15000
C1932       C  0.59729873  0.60375236  0.79527781     0.07200
C1933       C  0.59906917  0.56570885  0.77418480    -0.15000
C1934       C  0.59885173  0.56412339  0.73021294    -0.15000
C1935       C  0.59675937  0.60057125  0.70736082     0.07200
C1936       C  0.59237165  0.63809146  0.72853694    -0.15000
H1937       H  0.58971889  0.66899272  0.78809922     0.11200
H1938       H  0.60241217  0.53761016  0.79169233     0.11200
H1939       H  0.60221296  0.53487834  0.71416106     0.11200
H1940       H  0.58899130  0.66617764  0.71123784     0.11200
C1941       C  0.72826983  0.57274081  0.89945860    -0.15000
C1942       C  0.70572926  0.60826456  0.89143663     0.07200
C1943       C  0.72727035  0.64503448  0.88329322    -0.15000
C1944       C  0.77015836  0.64626447  0.88270533    -0.15000
C1945       C  0.79274940  0.61077305  0.89029822     0.07200
C1946       C  0.77127263  0.57397867  0.89889354    -0.15000
H1947       H  0.71269549  0.54380944  0.90547289     0.11200
H1948       H  0.71105846  0.67325891  0.87819846     0.11200
H1949       H  0.78559859  0.67535874  0.87718641     0.11200
H1950       H  0.78764805  0.54593179  0.90450483     0.11200
C1951       C  0.60015889  0.73081866  0.93233070    -0.15000
C1952       C  0.60909254  0.70814900  0.89552853     0.07200
C1953       C  0.61877297  0.73055589  0.85934830    -0.15000
C1954       C  0.61941077  0.77363044  0.85963706    -0.15000
C1955       C  0.61130693  0.79641052  0.89641160     0.07200
C1956       C  0.60135295  0.77418893  0.93278830    -0.15000
H1957       H  0.59312352  0.71517212  0.96120248     0.11200
H1958       H  0.62547830  0.71509881  0.83015403     0.11200
H1959       H  0.62583576  0.78887641  0.83041609     0.11200
H1960       H  0.59528246  0.79020336  0.96197124     0.11200
loop_ 
_geom_bond_atom_site_label_1 
_geom_bond_atom_site_label_2 
_geom_bond_distance 
_geom_bond_site_symmetry_2 
_ccdc_geom_bond_type 
O1            C9   1.279       .  A
O1        Co1001   2.019       .  S
O2           C10   1.241       .  A
O2        Co1247   1.949       .  S
O3           C11   1.249       .  A
O3         Co513   1.934       .  S
O4           C12   1.277       .  A
O4         Co759   1.932       .  S
O5           C11   1.266       .  A
O5         Co267   1.998       .  S
O6           C12   1.291       .  A
O6          Co21   2.094       .  S
O7           C10   1.267       .  A
O7         Co269   2.033   1_545  S
O8            C9   1.258       .  A
O8          Co23   1.941       .  S
C9          C114   1.483       .  S
C10          C30   1.513       .  S
C11          C78   1.495       .  S
C12          C42   1.537       .  S
O13          C26   1.276       .  A
O13        Co266   1.930       .  S
O14          C27   1.250       .  A
O14         Co22   1.942       .  S
O15          C28   1.242       .  A
O15        Co268   1.948   1_554  S
O16          C29   1.280       .  A
O16         Co24   2.018   1_544  S
O17          C29   1.262       .  A
O17       Co1002   1.944       .  S
O18          C28   1.267       .  A
O18       Co1246   2.036       .  S
O19          C26   1.289       .  A
O19        Co514   2.092   1_554  S
O20          C27   1.264       .  A
O20        Co758   1.992   1_554  S
Co21        O981   2.019   1_455  S
Co21        O258   1.930       .  S
Co21       O1243   2.036   1_455  S
Co21         O25   2.049   1_455  S
Co22       O1227   1.949   1_554  S
Co22        O250   1.998   1_554  S
Co22        O997   1.944       .  S
Co22       O1740   2.064   1_554  S
Co23        O493   1.934       .  S
Co23        O260   1.948       .  S
Co23        O755   1.992       .  S
Co23       O1005   2.062       .  S
Co24        O739   1.932       .  S
Co24        O252   2.033   1_565  S
Co24        O509   2.092   1_556  S
Co24        O760   2.049   1_465  S
O25       Co1737   2.064   1_655  S
O25       Co1003   2.062       .  S
O25        Co759   2.049   1_655  S
C26          C54   1.534       .  S
C27          C90   1.494       .  S
C28         C102   1.512       .  S
C29          C66   1.484       .  S
C30          C31   1.537       .  S
C30          C36   1.520       .  S
C30          C34   1.563       .  S
C31          H38   1.086       .  S
C31          C32   1.371       .  D
C32          C33   1.545       .  S
C32         C227   1.493       .  S
C33          C37   1.543       .  S
C33          C35   1.542       .  S
C33          H39   1.107       .  S
C34          H40   1.085       .  S
C34          C35   1.371       .  D
C35         C237   1.516       .  S
C36          H41   1.086       .  S
C36          C37   1.360       .  D
C37         C217   1.465       .  S
C42          C43   1.550       .  S
C42          C48   1.554       .  S
C42          C46   1.533       .  S
C43          H50   1.085       .  S
C43          C44   1.377       .  D
C44          C45   1.548       .  S
C44         C240   1.515       .  S
C45          C49   1.547       .  S
C45          C47   1.538       .  S
C45          H51   1.106       .  S
C46          H52   1.086       .  S
C46          C47   1.361       .  D
C47         C207   1.486       .  S
C48          H53   1.086       .  S
C48          C49   1.379       .  D
C49         C197   1.509       .  S
C54          C55   1.552       .  S
C54          C60   1.551       .  S
C54          C58   1.530       .  S
C55          H62   1.084       .  S
C55          C56   1.379       .  D
C56          C57   1.551       .  S
C56         C187   1.522       .  S
C57          C61   1.550       .  S
C57          C59   1.543       .  S
C57          H63   1.100       .  S
C58          H64   1.085       .  S
C58          C59   1.361       .  D
C59         C177   1.491       .  S
C60          H65   1.085       .  S
C60          C61   1.378       .  D
C61         C200   1.514       .  S
C66          C67   1.543       .  S
C66          C72   1.530       .  S
C66          C70   1.524       .  S
C67          H74   1.085       .  S
C67          C68   1.368       .  D
C68          C69   1.536       .  S
C68         C180   1.495       .  S
C69          C73   1.535       .  S
C69          C71   1.536       .  S
C69          H75   1.108       .  S
C70          H76   1.086       .  S
C70          C71   1.361       .  D
C71         C167   1.461       .  S
C72          H77   1.086       .  S
C72          C73   1.361       .  D
C73         C220   1.464       .  S
C78          C79   1.521       .  S
C78          C84   1.531       .  S
C78          C82   1.554       .  S
C79          H86   1.087       .  S
C79          C80   1.355       .  D
C80          C81   1.532       .  S
C80         C157   1.454       .  S
C81          C85   1.543       .  S
C81          C83   1.536       .  S
C81          H87   1.108       .  S
C82          H88   1.085       .  S
C82          C83   1.363       .  D
C83         C230   1.494       .  S
C84          H89   1.086       .  S
C84          C85   1.369       .  D
C85         C150   1.477       .  S
C90          C91   1.522       .  S
C90          C96   1.529       .  S
C90          C94   1.555       .  S
C91          H98   1.087       .  S
C91          C92   1.359       .  D
C92          C93   1.535       .  S
C92         C170   1.466       .  S
C93          C97   1.543       .  S
C93          C95   1.536       .  S
C93          H99   1.107       .  S
C94         H100   1.085       .  S
C94          C95   1.364       .  D
C95         C137   1.498       .  S
C96         H101   1.086       .  S
C96          C97   1.366       .  D
C97         C147   1.474       .  S
C102        C103   1.535       .  S
C102        C108   1.524       .  S
C102        C106   1.563       .  S
C103        H110   1.086       .  S
C103        C104   1.368       .  D
C104        C105   1.543       .  S
C104        C140   1.494       .  S
C105        C109   1.542       .  S
C105        C107   1.544       .  S
C105        H111   1.103       .  S
C106        H112   1.084       .  S
C106        C107   1.372       .  D
C107        C190   1.519       .  S
C108        H113   1.086       .  S
C108        C109   1.364       .  D
C109        C127   1.473       .  S
C114        C115   1.543       .  S
C114        C120   1.532       .  S
C114        C118   1.524       .  S
C115        H122   1.087       .  S
C115        C116   1.366       .  D
C116        C117   1.532       .  S
C116        C210   1.482       .  S
C117        C121   1.537       .  S
C117        C119   1.530       .  S
C117        H123   1.110       .  S
C118        H124   1.087       .  S
C118        C119   1.357       .  D
C119        C160   1.449       .  S
C120        H125   1.086       .  S
C120        C121   1.364       .  D
C121        C130   1.471       .  S
C126        C127   1.401       .  A
C126        C131   1.389       .  A
C126        H132   1.080       .  S
C127        C128   1.404       .  A
C128        C129   1.398       .  A
C128        H133   1.082       .  S
C129        C130   1.404       .  A
C129        H134   1.082       .  S
C130        C131   1.400       .  A
C131        H135   1.083       .  S
C136        C137   1.410       .  A
C136        C141   1.404       .  A
C136        H142   1.082       .  S
C137        C138   1.403       .  A
C138        C139   1.395       .  A
C138        H143   1.075       .  S
C139        C140   1.404       .  A
C139        H144   1.082       .  S
C140        C141   1.407       .  A
C141        H145   1.083       .  S
C146        C147   1.406       .  A
C146        C151   1.400       .  A
C146        H152   1.083       .  S
C147        C148   1.398       .  A
C148        C149   1.382       .  A
C148        H153   1.082       .  S
C149        C150   1.400       .  A
C149        H154   1.075       .  S
C150        C151   1.406       .  A
C151        H155   1.083       .  S
C156        C157   1.399       .  A
C156        C161   1.390       .  A
C156        H162   1.083       .  S
C157        C158   1.399       .  A
C158        C159   1.387       .  A
C158        H163   1.077       .  S
C159        C160   1.395       .  A
C159        H164   1.084       .  S
C160        C161   1.400       .  A
C161        H165   1.084       .  S
C166        C167   1.398       .  A
C166        C171   1.384       .  A
C166        H172   1.083       .  S
C167        C168   1.402       .  A
C168        C169   1.392       .  A
C168        H173   1.084       .  S
C169        C170   1.404       .  A
C169        H174   1.083       .  S
C170        C171   1.398       .  A
C171        H175   1.076       .  S
C176        C177   1.402       .  A
C176        C181   1.397       .  A
C176        H182   1.082       .  S
C177        C178   1.408       .  A
C178        C179   1.397       .  A
C178        H183   1.082       .  S
C179        C180   1.407       .  A
C179        H184   1.081       .  S
C180        C181   1.408       .  A
C181        H185   1.077       .  S
C186        C187   1.409       .  A
C186        C191   1.397       .  A
C186        H192   1.073       .  S
C187        C188   1.414       .  A
C188        C189   1.415       .  A
C188        H193   1.081       .  S
C189        C190   1.415       .  A
C189        H194   1.081       .  S
C190        C191   1.405       .  A
C191        H195   1.076       .  S
C196        C197   1.405       .  A
C196        C201   1.401       .  A
C196        H202   1.083       .  S
C197        C198   1.411       .  A
C198        C199   1.417       .  A
C198        H203   1.082       .  S
C199        C200   1.412       .  A
C199        H204   1.082       .  S
C200        C201   1.407       .  A
C201        H205   1.077       .  S
C206        C207   1.404       .  A
C206        C211   1.399       .  A
C206        H212   1.083       .  S
C207        C208   1.407       .  A
C208        C209   1.397       .  A
C208        H213   1.083       .  S
C209        C210   1.403       .  A
C209        H214   1.083       .  S
C210        C211   1.405       .  A
C211        H215   1.083       .  S
C216        C217   1.397       .  A
C216        C221   1.389       .  A
C216        H222   1.080       .  S
C217        C218   1.404       .  A
C218        C219   1.396       .  A
C218        H223   1.083       .  S
C219        C220   1.402       .  A
C219        H224   1.083       .  S
C220        C221   1.399       .  A
C221        H225   1.080       .  S
C226        C227   1.407       .  A
C226        C231   1.403       .  A
C226        H232   1.083       .  S
C227        C228   1.406       .  A
C228        C229   1.399       .  A
C228        H233   1.082       .  S
C229        C230   1.404       .  A
C229        H234   1.082       .  S
C230        C231   1.409       .  A
C231        H235   1.083       .  S
C236        C237   1.413       .  A
C236        C241   1.413       .  A
C236        H242   1.081       .  S
C237        C238   1.407       .  A
C238        C239   1.403       .  A
C238        H243   1.078       .  S
C239        C240   1.408       .  A
C239        H244   1.081       .  S
C240        C241   1.411       .  A
C241        H245   1.082       .  S
O246        C254   1.279       .  A
O246      Co1246   2.019   1_556  S
O247        C255   1.241       .  A
O247      Co1002   1.949   1_556  S
O248        C256   1.249       .  A
O248       Co758   1.934       .  S
O249        C257   1.277       .  A
O249       Co514   1.932       .  S
O250        C256   1.266       .  A
O251        C257   1.291       .  A
O251       Co266   2.094   1_556  S
O252        C255   1.267       .  A
O253        C254   1.258       .  A
O253       Co268   1.941       .  S
C254        C359   1.483       .  S
C255        C275   1.513       .  S
C256        C323   1.495       .  S
C257        C287   1.537       .  S
O258        C271   1.276       .  A
O259        C272   1.250       .  A
O259       Co267   1.942       .  S
O260        C273   1.242       .  A
O261        C274   1.280       .  A
O261       Co269   2.018   1_545  S
O262        C274   1.262       .  A
O262      Co1247   1.944       .  S
O263        C273   1.267       .  A
O263      Co1001   2.036       .  S
O264        C271   1.289       .  A
O264       Co759   2.092       .  S
O265        C272   1.264       .  A
O265       Co513   1.992       .  S
Co266      O1226   2.019   1_454  S
Co266       O998   2.036   1_455  S
Co266       O270   2.049   1_454  S
Co267       O982   1.949       .  S
Co267      O1242   1.944       .  S
Co267      O1495   2.064       .  S
Co268       O738   1.934       .  S
Co268       O510   1.992   1_556  S
Co268      O1250   2.062       .  S
Co269       O494   1.932       .  S
Co269       O754   2.092       .  S
Co269       O515   2.049   1_465  S
O270      Co1492   2.064   1_656  S
O270      Co1248   2.062       .  S
O270       Co514   2.049   1_655  S
C271        C299   1.534       .  S
C272        C335   1.494       .  S
C273        C347   1.512       .  S
C274        C311   1.484       .  S
C275        C276   1.537       .  S
C275        C281   1.520       .  S
C275        C279   1.563       .  S
C276        H283   1.086       .  S
C276        C277   1.371       .  D
C277        C278   1.545       .  S
C277        C472   1.493       .  S
C278        C282   1.543       .  S
C278        C280   1.542       .  S
C278        H284   1.107       .  S
C279        H285   1.085       .  S
C279        C280   1.371       .  D
C280        C482   1.516       .  S
C281        H286   1.086       .  S
C281        C282   1.360       .  D
C282        C462   1.465       .  S
C287        C288   1.550       .  S
C287        C293   1.554       .  S
C287        C291   1.533       .  S
C288        H295   1.085       .  S
C288        C289   1.377       .  D
C289        C290   1.548       .  S
C289        C485   1.515       .  S
C290        C294   1.547       .  S
C290        C292   1.538       .  S
C290        H296   1.106       .  S
C291        H297   1.086       .  S
C291        C292   1.361       .  D
C292        C452   1.486       .  S
C293        H298   1.086       .  S
C293        C294   1.379       .  D
C294        C442   1.509       .  S
C299        C300   1.552       .  S
C299        C305   1.551       .  S
C299        C303   1.530       .  S
C300        H307   1.084       .  S
C300        C301   1.379       .  D
C301        C302   1.551       .  S
C301        C432   1.522       .  S
C302        C306   1.550       .  S
C302        C304   1.543       .  S
C302        H308   1.100       .  S
C303        H309   1.085       .  S
C303        C304   1.361       .  D
C304        C422   1.491       .  S
C305        H310   1.085       .  S
C305        C306   1.378       .  D
C306        C445   1.514       .  S
C311        C312   1.543       .  S
C311        C317   1.530       .  S
C311        C315   1.524       .  S
C312        H319   1.085       .  S
C312        C313   1.368       .  D
C313        C314   1.536       .  S
C313        C425   1.495       .  S
C314        C318   1.535       .  S
C314        C316   1.536       .  S
C314        H320   1.108       .  S
C315        H321   1.086       .  S
C315        C316   1.361       .  D
C316        C412   1.461       .  S
C317        H322   1.086       .  S
C317        C318   1.361       .  D
C318        C465   1.464       .  S
C323        C324   1.521       .  S
C323        C329   1.531       .  S
C323        C327   1.554       .  S
C324        H331   1.087       .  S
C324        C325   1.355       .  D
C325        C326   1.532       .  S
C325        C402   1.454       .  S
C326        C330   1.543       .  S
C326        C328   1.536       .  S
C326        H332   1.108       .  S
C327        H333   1.085       .  S
C327        C328   1.363       .  D
C328        C475   1.494       .  S
C329        H334   1.086       .  S
C329        C330   1.369       .  D
C330        C395   1.477       .  S
C335        C336   1.522       .  S
C335        C341   1.529       .  S
C335        C339   1.555       .  S
C336        H343   1.087       .  S
C336        C337   1.359       .  D
C337        C338   1.535       .  S
C337        C415   1.466       .  S
C338        C342   1.543       .  S
C338        C340   1.536       .  S
C338        H344   1.107       .  S
C339        H345   1.085       .  S
C339        C340   1.364       .  D
C340        C382   1.498       .  S
C341        H346   1.086       .  S
C341        C342   1.366       .  D
C342        C392   1.474       .  S
C347        C348   1.535       .  S
C347        C353   1.524       .  S
C347        C351   1.563       .  S
C348        H355   1.086       .  S
C348        C349   1.368       .  D
C349        C350   1.543       .  S
C349        C385   1.494       .  S
C350        C354   1.542       .  S
C350        C352   1.544       .  S
C350        H356   1.103       .  S
C351        H357   1.084       .  S
C351        C352   1.372       .  D
C352        C435   1.519       .  S
C353        H358   1.086       .  S
C353        C354   1.364       .  D
C354        C372   1.473       .  S
C359        C360   1.543       .  S
C359        C365   1.532       .  S
C359        C363   1.524       .  S
C360        H367   1.087       .  S
C360        C361   1.366       .  D
C361        C362   1.532       .  S
C361        C455   1.482       .  S
C362        C366   1.537       .  S
C362        C364   1.530       .  S
C362        H368   1.110       .  S
C363        H369   1.087       .  S
C363        C364   1.357       .  D
C364        C405   1.449       .  S
C365        H370   1.086       .  S
C365        C366   1.364       .  D
C366        C375   1.471       .  S
C371        C372   1.401       .  A
C371        C376   1.389       .  A
C371        H377   1.080       .  S
C372        C373   1.404       .  A
C373        C374   1.398       .  A
C373        H378   1.082       .  S
C374        C375   1.404       .  A
C374        H379   1.082       .  S
C375        C376   1.400       .  A
C376        H380   1.083       .  S
C381        C382   1.410       .  A
C381        C386   1.404       .  A
C381        H387   1.082       .  S
C382        C383   1.403       .  A
C383        C384   1.395       .  A
C383        H388   1.075       .  S
C384        C385   1.404       .  A
C384        H389   1.082       .  S
C385        C386   1.407       .  A
C386        H390   1.083       .  S
C391        C392   1.406       .  A
C391        C396   1.400       .  A
C391        H397   1.083       .  S
C392        C393   1.398       .  A
C393        C394   1.382       .  A
C393        H398   1.082       .  S
C394        C395   1.400       .  A
C394        H399   1.075       .  S
C395        C396   1.406       .  A
C396        H400   1.083       .  S
C401        C402   1.399       .  A
C401        C406   1.390       .  A
C401        H407   1.083       .  S
C402        C403   1.399       .  A
C403        C404   1.387       .  A
C403        H408   1.077       .  S
C404        C405   1.395       .  A
C404        H409   1.084       .  S
C405        C406   1.400       .  A
C406        H410   1.084       .  S
C411        C412   1.398       .  A
C411        C416   1.384       .  A
C411        H417   1.083       .  S
C412        C413   1.402       .  A
C413        C414   1.392       .  A
C413        H418   1.084       .  S
C414        C415   1.404       .  A
C414        H419   1.083       .  S
C415        C416   1.398       .  A
C416        H420   1.076       .  S
C421        C422   1.402       .  A
C421        C426   1.397       .  A
C421        H427   1.082       .  S
C422        C423   1.408       .  A
C423        C424   1.397       .  A
C423        H428   1.082       .  S
C424        C425   1.407       .  A
C424        H429   1.081       .  S
C425        C426   1.408       .  A
C426        H430   1.077       .  S
C431        C432   1.409       .  A
C431        C436   1.397       .  A
C431        H437   1.073       .  S
C432        C433   1.414       .  A
C433        C434   1.415       .  A
C433        H438   1.081       .  S
C434        C435   1.415       .  A
C434        H439   1.081       .  S
C435        C436   1.405       .  A
C436        H440   1.076       .  S
C441        C442   1.405       .  A
C441        C446   1.401       .  A
C441        H447   1.083       .  S
C442        C443   1.411       .  A
C443        C444   1.417       .  A
C443        H448   1.082       .  S
C444        C445   1.412       .  A
C444        H449   1.082       .  S
C445        C446   1.407       .  A
C446        H450   1.077       .  S
C451        C452   1.404       .  A
C451        C456   1.399       .  A
C451        H457   1.083       .  S
C452        C453   1.407       .  A
C453        C454   1.397       .  A
C453        H458   1.083       .  S
C454        C455   1.403       .  A
C454        H459   1.083       .  S
C455        C456   1.405       .  A
C456        H460   1.083       .  S
C461        C462   1.397       .  A
C461        C466   1.389       .  A
C461        H467   1.080       .  S
C462        C463   1.404       .  A
C463        C464   1.396       .  A
C463        H468   1.083       .  S
C464        C465   1.402       .  A
C464        H469   1.083       .  S
C465        C466   1.399       .  A
C466        H470   1.080       .  S
C471        C472   1.407       .  A
C471        C476   1.403       .  A
C471        H477   1.083       .  S
C472        C473   1.406       .  A
C473        C474   1.399       .  A
C473        H478   1.082       .  S
C474        C475   1.404       .  A
C474        H479   1.082       .  S
C475        C476   1.409       .  A
C476        H480   1.083       .  S
C481        C482   1.413       .  A
C481        C486   1.413       .  A
C481        H487   1.081       .  S
C482        C483   1.407       .  A
C483        C484   1.403       .  A
C483        H488   1.078       .  S
C484        C485   1.408       .  A
C484        H489   1.081       .  S
C485        C486   1.411       .  A
C486        H490   1.082       .  S
O491        C499   1.279       .  A
O491      Co1491   2.019       .  S
O492        C500   1.241       .  A
O492      Co1737   1.949       .  S
O493        C501   1.249       .  A
O494        C502   1.277       .  A
O495        C501   1.266       .  A
O495       Co757   1.998       .  S
O496        C502   1.291       .  A
O496       Co511   2.094       .  S
O497        C500   1.267       .  A
O497       Co759   2.033       .  S
O498        C499   1.258       .  A
O498       Co513   1.941   1_565  S
C499        C604   1.483       .  S
C500        C520   1.513       .  S
C501        C568   1.495       .  S
C502        C532   1.537       .  S
O503        C516   1.276       .  A
O503       Co756   1.930       .  S
O504        C517   1.250       .  A
O504       Co512   1.942       .  S
O505        C518   1.242       .  A
O505       Co758   1.948   1_564  S
O506        C519   1.280       .  A
O506       Co514   2.019   1_554  S
O507        C519   1.262       .  A
O507      Co1492   1.944       .  S
O508        C518   1.267       .  A
O508      Co1736   2.036       .  S
O509        C516   1.289       .  A
O510        C517   1.264       .  A
Co511      O1471   2.019   1_455  S
Co511       O748   1.930       .  S
Co511      O1733   2.036   1_455  S
Co511       O515   2.049   1_465  S
Co512      O1717   1.949   1_554  S
Co512       O740   1.998   1_554  S
Co512      O1487   1.944       .  S
Co512      O1250   2.064   1_554  S
Co513       O750   1.948   1_545  S
Co513      O1495   2.062       .  S
Co514       O742   2.033       .  S
O515      Co1247   2.064   1_655  S
O515      Co1493   2.062       .  S
C516        C544   1.533       .  S
C517        C580   1.494       .  S
C518        C592   1.512       .  S
C519        C556   1.484       .  S
C520        C521   1.537       .  S
C520        C526   1.520       .  S
C520        C524   1.563       .  S
C521        H528   1.086       .  S
C521        C522   1.371       .  D
C522        C523   1.545       .  S
C522        C717   1.493       .  S
C523        C527   1.543       .  S
C523        C525   1.542       .  S
C523        H529   1.107       .  S
C524        H530   1.085       .  S
C524        C525   1.371       .  D
C525        C727   1.516       .  S
C526        H531   1.086       .  S
C526        C527   1.360       .  D
C527        C707   1.465       .  S
C532        C533   1.550       .  S
C532        C538   1.554       .  S
C532        C536   1.533       .  S
C533        H540   1.085       .  S
C533        C534   1.377       .  D
C534        C535   1.548       .  S
C534        C730   1.515       .  S
C535        C539   1.547       .  S
C535        C537   1.539       .  S
C535        H541   1.106       .  S
C536        H542   1.086       .  S
C536        C537   1.361       .  D
C537        C697   1.486       .  S
C538        H543   1.086       .  S
C538        C539   1.379       .  D
C539        C687   1.509       .  S
C544        C545   1.552       .  S
C544        C550   1.551       .  S
C544        C548   1.530       .  S
C545        H552   1.084       .  S
C545        C546   1.379       .  D
C546        C547   1.551       .  S
C546        C677   1.522       .  S
C547        C551   1.550       .  S
C547        C549   1.543       .  S
C547        H553   1.100       .  S
C548        H554   1.085       .  S
C548        C549   1.361       .  D
C549        C667   1.491       .  S
C550        H555   1.085       .  S
C550        C551   1.378       .  D
C551        C690   1.514       .  S
C556        C557   1.543       .  S
C556        C562   1.530       .  S
C556        C560   1.524       .  S
C557        H564   1.085       .  S
C557        C558   1.368       .  D
C558        C559   1.536       .  S
C558        C670   1.495       .  S
C559        C563   1.535       .  S
C559        C561   1.536       .  S
C559        H565   1.108       .  S
C560        H566   1.086       .  S
C560        C561   1.361       .  D
C561        C657   1.461       .  S
C562        H567   1.086       .  S
C562        C563   1.361       .  D
C563        C710   1.464       .  S
C568        C569   1.521       .  S
C568        C574   1.531       .  S
C568        C572   1.554       .  S
C569        H576   1.087       .  S
C569        C570   1.355       .  D
C570        C571   1.532       .  S
C570        C647   1.454       .  S
C571        C575   1.543       .  S
C571        C573   1.536       .  S
C571        H577   1.108       .  S
C572        H578   1.085       .  S
C572        C573   1.363       .  D
C573        C720   1.494       .  S
C574        H579   1.086       .  S
C574        C575   1.369       .  D
C575        C640   1.477       .  S
C580        C581   1.522       .  S
C580        C586   1.529       .  S
C580        C584   1.555       .  S
C581        H588   1.087       .  S
C581        C582   1.359       .  D
C582        C583   1.535       .  S
C582        C660   1.466       .  S
C583        C587   1.543       .  S
C583        C585   1.536       .  S
C583        H589   1.107       .  S
C584        H590   1.085       .  S
C584        C585   1.364       .  D
C585        C627   1.498       .  S
C586        H591   1.086       .  S
C586        C587   1.366       .  D
C587        C637   1.474       .  S
C592        C593   1.535       .  S
C592        C598   1.524       .  S
C592        C596   1.563       .  S
C593        H600   1.086       .  S
C593        C594   1.368       .  D
C594        C595   1.543       .  S
C594        C630   1.494       .  S
C595        C599   1.542       .  S
C595        C597   1.544       .  S
C595        H601   1.103       .  S
C596        H602   1.084       .  S
C596        C597   1.372       .  D
C597        C680   1.519       .  S
C598        H603   1.086       .  S
C598        C599   1.364       .  D
C599        C617   1.473       .  S
C604        C605   1.543       .  S
C604        C610   1.532       .  S
C604        C608   1.524       .  S
C605        H612   1.087       .  S
C605        C606   1.366       .  D
C606        C607   1.532       .  S
C606        C700   1.482       .  S
C607        C611   1.537       .  S
C607        C609   1.530       .  S
C607        H613   1.110       .  S
C608        H614   1.087       .  S
C608        C609   1.357       .  D
C609        C650   1.449       .  S
C610        H615   1.086       .  S
C610        C611   1.364       .  D
C611        C620   1.471       .  S
C616        C617   1.401       .  A
C616        C621   1.389       .  A
C616        H622   1.080       .  S
C617        C618   1.404       .  A
C618        C619   1.398       .  A
C618        H623   1.082       .  S
C619        C620   1.404       .  A
C619        H624   1.082       .  S
C620        C621   1.400       .  A
C621        H625   1.083       .  S
C626        C627   1.410       .  A
C626        C631   1.404       .  A
C626        H632   1.082       .  S
C627        C628   1.403       .  A
C628        C629   1.395       .  A
C628        H633   1.075       .  S
C629        C630   1.404       .  A
C629        H634   1.082       .  S
C630        C631   1.407       .  A
C631        H635   1.083       .  S
C636        C637   1.406       .  A
C636        C641   1.400       .  A
C636        H642   1.083       .  S
C637        C638   1.398       .  A
C638        C639   1.382       .  A
C638        H643   1.082       .  S
C639        C640   1.400       .  A
C639        H644   1.075       .  S
C640        C641   1.406       .  A
C641        H645   1.083       .  S
C646        C647   1.399       .  A
C646        C651   1.390       .  A
C646        H652   1.083       .  S
C647        C648   1.399       .  A
C648        C649   1.387       .  A
C648        H653   1.077       .  S
C649        C650   1.395       .  A
C649        H654   1.084       .  S
C650        C651   1.400       .  A
C651        H655   1.084       .  S
C656        C657   1.398       .  A
C656        C661   1.384       .  A
C656        H662   1.083       .  S
C657        C658   1.402       .  A
C658        C659   1.392       .  A
C658        H663   1.084       .  S
C659        C660   1.404       .  A
C659        H664   1.083       .  S
C660        C661   1.398       .  A
C661        H665   1.076       .  S
C666        C667   1.402       .  A
C666        C671   1.397       .  A
C666        H672   1.082       .  S
C667        C668   1.408       .  A
C668        C669   1.397       .  A
C668        H673   1.082       .  S
C669        C670   1.407       .  A
C669        H674   1.081       .  S
C670        C671   1.408       .  A
C671        H675   1.077       .  S
C676        C677   1.409       .  A
C676        C681   1.397       .  A
C676        H682   1.073       .  S
C677        C678   1.414       .  A
C678        C679   1.415       .  A
C678        H683   1.081       .  S
C679        C680   1.415       .  A
C679        H684   1.081       .  S
C680        C681   1.406       .  A
C681        H685   1.076       .  S
C686        C687   1.405       .  A
C686        C691   1.401       .  A
C686        H692   1.083       .  S
C687        C688   1.411       .  A
C688        C689   1.417       .  A
C688        H693   1.082       .  S
C689        C690   1.412       .  A
C689        H694   1.082       .  S
C690        C691   1.407       .  A
C691        H695   1.077       .  S
C696        C697   1.404       .  A
C696        C701   1.399       .  A
C696        H702   1.083       .  S
C697        C698   1.407       .  A
C698        C699   1.397       .  A
C698        H703   1.083       .  S
C699        C700   1.403       .  A
C699        H704   1.083       .  S
C700        C701   1.405       .  A
C701        H705   1.083       .  S
C706        C707   1.397       .  A
C706        C711   1.389       .  A
C706        H712   1.080       .  S
C707        C708   1.404       .  A
C708        C709   1.396       .  A
C708        H713   1.083       .  S
C709        C710   1.402       .  A
C709        H714   1.083       .  S
C710        C711   1.399       .  A
C711        H715   1.080       .  S
C716        C717   1.407       .  A
C716        C721   1.403       .  A
C716        H722   1.083       .  S
C717        C718   1.406       .  A
C718        C719   1.399       .  A
C718        H723   1.082       .  S
C719        C720   1.404       .  A
C719        H724   1.082       .  S
C720        C721   1.409       .  A
C721        H725   1.083       .  S
C726        C727   1.413       .  A
C726        C731   1.413       .  A
C726        H732   1.081       .  S
C727        C728   1.407       .  A
C728        C729   1.403       .  A
C728        H733   1.078       .  S
C729        C730   1.408       .  A
C729        H734   1.081       .  S
C730        C731   1.411       .  A
C731        H735   1.082       .  S
O736        C744   1.279       .  A
O736      Co1736   2.019   1_556  S
O737        C745   1.241       .  A
O737      Co1492   1.949   1_556  S
O738        C746   1.249       .  A
O739        C747   1.277       .  A
O740        C746   1.266       .  A
O741        C747   1.291       .  A
O741       Co756   2.094   1_556  S
O742        C745   1.267       .  A
O743        C744   1.258       .  A
O743       Co758   1.941   1_565  S
C744        C849   1.483       .  S
C745        C765   1.513       .  S
C746        C813   1.495       .  S
C747        C777   1.537       .  S
O748        C761   1.276       .  A
O749        C762   1.250       .  A
O749       Co757   1.942       .  S
O750        C763   1.242       .  A
O751        C764   1.280       .  A
O751       Co759   2.019       .  S
O752        C764   1.262       .  A
O752      Co1737   1.944       .  S
O753        C763   1.267       .  A
O753      Co1491   2.036       .  S
O754        C761   1.289       .  A
O755        C762   1.264       .  A
Co756      O1716   2.019   1_454  S
Co756      O1488   2.036   1_455  S
Co756       O760   2.049   1_464  S
Co757      O1472   1.949       .  S
Co757      O1732   1.944       .  S
Co757      O1005   2.064       .  S
Co758      O1740   2.062       .  S
O760      Co1002   2.064   1_656  S
O760      Co1738   2.062       .  S
C761        C789   1.533       .  S
C762        C825   1.494       .  S
C763        C837   1.512       .  S
C764        C801   1.484       .  S
C765        C766   1.537       .  S
C765        C771   1.520       .  S
C765        C769   1.563       .  S
C766        H773   1.086       .  S
C766        C767   1.371       .  D
C767        C768   1.545       .  S
C767        C962   1.493       .  S
C768        C772   1.543       .  S
C768        C770   1.542       .  S
C768        H774   1.107       .  S
C769        H775   1.085       .  S
C769        C770   1.371       .  D
C770        C972   1.516       .  S
C771        H776   1.086       .  S
C771        C772   1.360       .  D
C772        C952   1.465       .  S
C777        C778   1.550       .  S
C777        C783   1.554       .  S
C777        C781   1.533       .  S
C778        H785   1.085       .  S
C778        C779   1.377       .  D
C779        C780   1.548       .  S
C779        C975   1.515       .  S
C780        C784   1.547       .  S
C780        C782   1.539       .  S
C780        H786   1.106       .  S
C781        H787   1.086       .  S
C781        C782   1.361       .  D
C782        C942   1.486       .  S
C783        H788   1.086       .  S
C783        C784   1.379       .  D
C784        C932   1.509       .  S
C789        C790   1.552       .  S
C789        C795   1.551       .  S
C789        C793   1.530       .  S
C790        H797   1.084       .  S
C790        C791   1.379       .  D
C791        C792   1.551       .  S
C791        C922   1.522       .  S
C792        C796   1.550       .  S
C792        C794   1.543       .  S
C792        H798   1.100       .  S
C793        H799   1.085       .  S
C793        C794   1.361       .  D
C794        C912   1.491       .  S
C795        H800   1.085       .  S
C795        C796   1.378       .  D
C796        C935   1.514       .  S
C801        C802   1.543       .  S
C801        C807   1.530       .  S
C801        C805   1.524       .  S
C802        H809   1.085       .  S
C802        C803   1.368       .  D
C803        C804   1.536       .  S
C803        C915   1.495       .  S
C804        C808   1.535       .  S
C804        C806   1.536       .  S
C804        H810   1.108       .  S
C805        H811   1.086       .  S
C805        C806   1.361       .  D
C806        C902   1.461       .  S
C807        H812   1.086       .  S
C807        C808   1.361       .  D
C808        C955   1.464       .  S
C813        C814   1.521       .  S
C813        C819   1.531       .  S
C813        C817   1.554       .  S
C814        H821   1.087       .  S
C814        C815   1.355       .  D
C815        C816   1.532       .  S
C815        C892   1.454       .  S
C816        C820   1.543       .  S
C816        C818   1.536       .  S
C816        H822   1.108       .  S
C817        H823   1.085       .  S
C817        C818   1.363       .  D
C818        C965   1.494       .  S
C819        H824   1.086       .  S
C819        C820   1.369       .  D
C820        C885   1.477       .  S
C825        C826   1.522       .  S
C825        C831   1.529       .  S
C825        C829   1.555       .  S
C826        H833   1.087       .  S
C826        C827   1.359       .  D
C827        C828   1.535       .  S
C827        C905   1.466       .  S
C828        C832   1.543       .  S
C828        C830   1.536       .  S
C828        H834   1.107       .  S
C829        H835   1.085       .  S
C829        C830   1.364       .  D
C830        C872   1.498       .  S
C831        H836   1.086       .  S
C831        C832   1.366       .  D
C832        C882   1.474       .  S
C837        C838   1.535       .  S
C837        C843   1.524       .  S
C837        C841   1.563       .  S
C838        H845   1.086       .  S
C838        C839   1.368       .  D
C839        C840   1.543       .  S
C839        C875   1.494       .  S
C840        C844   1.542       .  S
C840        C842   1.544       .  S
C840        H846   1.103       .  S
C841        H847   1.084       .  S
C841        C842   1.372       .  D
C842        C925   1.519       .  S
C843        H848   1.086       .  S
C843        C844   1.364       .  D
C844        C862   1.473       .  S
C849        C850   1.543       .  S
C849        C855   1.532       .  S
C849        C853   1.524       .  S
C850        H857   1.087       .  S
C850        C851   1.366       .  D
C851        C852   1.532       .  S
C851        C945   1.482       .  S
C852        C856   1.537       .  S
C852        C854   1.530       .  S
C852        H858   1.110       .  S
C853        H859   1.087       .  S
C853        C854   1.357       .  D
C854        C895   1.449       .  S
C855        H860   1.086       .  S
C855        C856   1.364       .  D
C856        C865   1.471       .  S
C861        C862   1.401       .  A
C861        C866   1.389       .  A
C861        H867   1.080       .  S
C862        C863   1.404       .  A
C863        C864   1.398       .  A
C863        H868   1.082       .  S
C864        C865   1.404       .  A
C864        H869   1.082       .  S
C865        C866   1.400       .  A
C866        H870   1.083       .  S
C871        C872   1.410       .  A
C871        C876   1.404       .  A
C871        H877   1.082       .  S
C872        C873   1.403       .  A
C873        C874   1.395       .  A
C873        H878   1.075       .  S
C874        C875   1.404       .  A
C874        H879   1.082       .  S
C875        C876   1.407       .  A
C876        H880   1.083       .  S
C881        C882   1.406       .  A
C881        C886   1.400       .  A
C881        H887   1.083       .  S
C882        C883   1.398       .  A
C883        C884   1.382       .  A
C883        H888   1.082       .  S
C884        C885   1.400       .  A
C884        H889   1.075       .  S
C885        C886   1.406       .  A
C886        H890   1.083       .  S
C891        C892   1.399       .  A
C891        C896   1.390       .  A
C891        H897   1.083       .  S
C892        C893   1.399       .  A
C893        C894   1.387       .  A
C893        H898   1.077       .  S
C894        C895   1.395       .  A
C894        H899   1.084       .  S
C895        C896   1.400       .  A
C896        H900   1.084       .  S
C901        C902   1.398       .  A
C901        C906   1.384       .  A
C901        H907   1.083       .  S
C902        C903   1.402       .  A
C903        C904   1.392       .  A
C903        H908   1.084       .  S
C904        C905   1.404       .  A
C904        H909   1.083       .  S
C905        C906   1.398       .  A
C906        H910   1.076       .  S
C911        C912   1.402       .  A
C911        C916   1.397       .  A
C911        H917   1.082       .  S
C912        C913   1.408       .  A
C913        C914   1.397       .  A
C913        H918   1.082       .  S
C914        C915   1.407       .  A
C914        H919   1.081       .  S
C915        C916   1.408       .  A
C916        H920   1.077       .  S
C921        C922   1.409       .  A
C921        C926   1.397       .  A
C921        H927   1.073       .  S
C922        C923   1.414       .  A
C923        C924   1.415       .  A
C923        H928   1.081       .  S
C924        C925   1.415       .  A
C924        H929   1.081       .  S
C925        C926   1.406       .  A
C926        H930   1.076       .  S
C931        C932   1.405       .  A
C931        C936   1.401       .  A
C931        H937   1.083       .  S
C932        C933   1.411       .  A
C933        C934   1.417       .  A
C933        H938   1.082       .  S
C934        C935   1.412       .  A
C934        H939   1.082       .  S
C935        C936   1.407       .  A
C936        H940   1.077       .  S
C941        C942   1.404       .  A
C941        C946   1.399       .  A
C941        H947   1.083       .  S
C942        C943   1.407       .  A
C943        C944   1.397       .  A
C943        H948   1.083       .  S
C944        C945   1.403       .  A
C944        H949   1.083       .  S
C945        C946   1.405       .  A
C946        H950   1.083       .  S
C951        C952   1.397       .  A
C951        C956   1.389       .  A
C951        H957   1.080       .  S
C952        C953   1.404       .  A
C953        C954   1.396       .  A
C953        H958   1.083       .  S
C954        C955   1.402       .  A
C954        H959   1.083       .  S
C955        C956   1.399       .  A
C956        H960   1.080       .  S
C961        C962   1.407       .  A
C961        C966   1.403       .  A
C961        H967   1.083       .  S
C962        C963   1.406       .  A
C963        C964   1.399       .  A
C963        H968   1.082       .  S
C964        C965   1.404       .  A
C964        H969   1.082       .  S
C965        C966   1.409       .  A
C966        H970   1.083       .  S
C971        C972   1.413       .  A
C971        C976   1.413       .  A
C971        H977   1.081       .  S
C972        C973   1.407       .  A
C973        C974   1.403       .  A
C973        H978   1.078       .  S
C974        C975   1.408       .  A
C974        H979   1.081       .  S
C975        C976   1.411       .  A
C976        H980   1.082       .  S
O981        C989   1.279       .  A
O982        C990   1.241       .  A
O983        C991   1.249       .  A
O983      Co1493   1.934       .  S
O984        C992   1.277       .  A
O984      Co1739   1.932       .  S
O985        C991   1.266       .  A
O985      Co1247   1.998   1_655  S
O986        C992   1.291       .  A
O986      Co1001   2.094       .  S
O987        C990   1.267       .  A
O987      Co1249   2.033   1_545  S
O988        C989   1.258       .  A
O988      Co1003   1.941       .  S
C989       C1094   1.483       .  S
C990       C1010   1.513       .  S
C991       C1058   1.495       .  S
C992       C1022   1.537       .  S
O993       C1006   1.276       .  A
O993      Co1246   1.930       .  S
O994       C1007   1.250       .  A
O994      Co1002   1.942   1_655  S
O995       C1008   1.242       .  A
O995      Co1248   1.948   1_554  S
O996       C1009   1.280       .  A
O996      Co1004   2.018   1_544  S
O997       C1009   1.262       .  A
O998       C1008   1.267       .  A
O999       C1006   1.289       .  A
O999      Co1494   2.092   1_554  S
O1000      C1007   1.264       .  A
O1000     Co1738   1.992   1_554  S
Co1001     O1238   1.930       .  S
Co1001     O1005   2.049       .  S
Co1002     O1230   1.998   1_454  S
Co1003     O1473   1.934       .  S
Co1003     O1240   1.948       .  S
Co1003     O1735   1.992       .  S
Co1004     O1719   1.932       .  S
Co1004     O1232   2.033   1_565  S
Co1004     O1489   2.092   1_556  S
Co1004     O1740   2.049   1_565  S
O1005     Co1739   2.049       .  S
C1006      C1034   1.534       .  S
C1007      C1070   1.494       .  S
C1008      C1082   1.512       .  S
C1009      C1046   1.484       .  S
C1010      C1011   1.537       .  S
C1010      C1016   1.520       .  S
C1010      C1014   1.563       .  S
C1011      H1018   1.086       .  S
C1011      C1012   1.371       .  D
C1012      C1013   1.545       .  S
C1012      C1207   1.493       .  S
C1013      C1017   1.543       .  S
C1013      C1015   1.542       .  S
C1013      H1019   1.107       .  S
C1014      H1020   1.085       .  S
C1014      C1015   1.371       .  D
C1015      C1217   1.516       .  S
C1016      H1021   1.086       .  S
C1016      C1017   1.360       .  D
C1017      C1197   1.465       .  S
C1022      C1023   1.550       .  S
C1022      C1028   1.554       .  S
C1022      C1026   1.533       .  S
C1023      H1030   1.085       .  S
C1023      C1024   1.377       .  D
C1024      C1025   1.548       .  S
C1024      C1220   1.515       .  S
C1025      C1029   1.547       .  S
C1025      C1027   1.538       .  S
C1025      H1031   1.106       .  S
C1026      H1032   1.086       .  S
C1026      C1027   1.361       .  D
C1027      C1187   1.486       .  S
C1028      H1033   1.086       .  S
C1028      C1029   1.379       .  D
C1029      C1177   1.509       .  S
C1034      C1035   1.552       .  S
C1034      C1040   1.551       .  S
C1034      C1038   1.530       .  S
C1035      H1042   1.084       .  S
C1035      C1036   1.379       .  D
C1036      C1037   1.551       .  S
C1036      C1167   1.522       .  S
C1037      C1041   1.550       .  S
C1037      C1039   1.543       .  S
C1037      H1043   1.100       .  S
C1038      H1044   1.085       .  S
C1038      C1039   1.361       .  D
C1039      C1157   1.491       .  S
C1040      H1045   1.085       .  S
C1040      C1041   1.378       .  D
C1041      C1180   1.514       .  S
C1046      C1047   1.543       .  S
C1046      C1052   1.530       .  S
C1046      C1050   1.524       .  S
C1047      H1054   1.085       .  S
C1047      C1048   1.368       .  D
C1048      C1049   1.536       .  S
C1048      C1160   1.495       .  S
C1049      C1053   1.535       .  S
C1049      C1051   1.536       .  S
C1049      H1055   1.108       .  S
C1050      H1056   1.086       .  S
C1050      C1051   1.361       .  D
C1051      C1147   1.461       .  S
C1052      H1057   1.086       .  S
C1052      C1053   1.361       .  D
C1053      C1200   1.464       .  S
C1058      C1059   1.521       .  S
C1058      C1064   1.531       .  S
C1058      C1062   1.554       .  S
C1059      H1066   1.087       .  S
C1059      C1060   1.355       .  D
C1060      C1061   1.532       .  S
C1060      C1137   1.454       .  S
C1061      C1065   1.543       .  S
C1061      C1063   1.536       .  S
C1061      H1067   1.108       .  S
C1062      H1068   1.085       .  S
C1062      C1063   1.363       .  D
C1063      C1210   1.494       .  S
C1064      H1069   1.086       .  S
C1064      C1065   1.369       .  D
C1065      C1130   1.477       .  S
C1070      C1071   1.522       .  S
C1070      C1076   1.529       .  S
C1070      C1074   1.555       .  S
C1071      H1078   1.087       .  S
C1071      C1072   1.359       .  D
C1072      C1073   1.535       .  S
C1072      C1150   1.466       .  S
C1073      C1077   1.543       .  S
C1073      C1075   1.536       .  S
C1073      H1079   1.107       .  S
C1074      H1080   1.085       .  S
C1074      C1075   1.364       .  D
C1075      C1117   1.498       .  S
C1076      H1081   1.086       .  S
C1076      C1077   1.366       .  D
C1077      C1127   1.474       .  S
C1082      C1083   1.535       .  S
C1082      C1088   1.524       .  S
C1082      C1086   1.563       .  S
C1083      H1090   1.086       .  S
C1083      C1084   1.368       .  D
C1084      C1085   1.543       .  S
C1084      C1120   1.494       .  S
C1085      C1089   1.542       .  S
C1085      C1087   1.544       .  S
C1085      H1091   1.103       .  S
C1086      H1092   1.084       .  S
C1086      C1087   1.372       .  D
C1087      C1170   1.519       .  S
C1088      H1093   1.086       .  S
C1088      C1089   1.364       .  D
C1089      C1107   1.473       .  S
C1094      C1095   1.543       .  S
C1094      C1100   1.532       .  S
C1094      C1098   1.524       .  S
C1095      H1102   1.087       .  S
C1095      C1096   1.366       .  D
C1096      C1097   1.532       .  S
C1096      C1190   1.482       .  S
C1097      C1101   1.537       .  S
C1097      C1099   1.530       .  S
C1097      H1103   1.110       .  S
C1098      H1104   1.087       .  S
C1098      C1099   1.357       .  D
C1099      C1140   1.449       .  S
C1100      H1105   1.086       .  S
C1100      C1101   1.364       .  D
C1101      C1110   1.471       .  S
C1106      C1107   1.401       .  A
C1106      C1111   1.389       .  A
C1106      H1112   1.080       .  S
C1107      C1108   1.404       .  A
C1108      C1109   1.398       .  A
C1108      H1113   1.082       .  S
C1109      C1110   1.404       .  A
C1109      H1114   1.082       .  S
C1110      C1111   1.400       .  A
C1111      H1115   1.083       .  S
C1116      C1117   1.410       .  A
C1116      C1121   1.404       .  A
C1116      H1122   1.082       .  S
C1117      C1118   1.403       .  A
C1118      C1119   1.395       .  A
C1118      H1123   1.075       .  S
C1119      C1120   1.404       .  A
C1119      H1124   1.082       .  S
C1120      C1121   1.407       .  A
C1121      H1125   1.083       .  S
C1126      C1127   1.406       .  A
C1126      C1131   1.400       .  A
C1126      H1132   1.083       .  S
C1127      C1128   1.398       .  A
C1128      C1129   1.382       .  A
C1128      H1133   1.082       .  S
C1129      C1130   1.400       .  A
C1129      H1134   1.075       .  S
C1130      C1131   1.406       .  A
C1131      H1135   1.083       .  S
C1136      C1137   1.399       .  A
C1136      C1141   1.390       .  A
C1136      H1142   1.083       .  S
C1137      C1138   1.399       .  A
C1138      C1139   1.387       .  A
C1138      H1143   1.077       .  S
C1139      C1140   1.395       .  A
C1139      H1144   1.084       .  S
C1140      C1141   1.400       .  A
C1141      H1145   1.084       .  S
C1146      C1147   1.398       .  A
C1146      C1151   1.384       .  A
C1146      H1152   1.083       .  S
C1147      C1148   1.402       .  A
C1148      C1149   1.392       .  A
C1148      H1153   1.084       .  S
C1149      C1150   1.404       .  A
C1149      H1154   1.083       .  S
C1150      C1151   1.398       .  A
C1151      H1155   1.076       .  S
C1156      C1157   1.402       .  A
C1156      C1161   1.397       .  A
C1156      H1162   1.082       .  S
C1157      C1158   1.408       .  A
C1158      C1159   1.397       .  A
C1158      H1163   1.082       .  S
C1159      C1160   1.407       .  A
C1159      H1164   1.081       .  S
C1160      C1161   1.408       .  A
C1161      H1165   1.077       .  S
C1166      C1167   1.409       .  A
C1166      C1171   1.397       .  A
C1166      H1172   1.073       .  S
C1167      C1168   1.414       .  A
C1168      C1169   1.415       .  A
C1168      H1173   1.081       .  S
C1169      C1170   1.415       .  A
C1169      H1174   1.081       .  S
C1170      C1171   1.405       .  A
C1171      H1175   1.076       .  S
C1176      C1177   1.405       .  A
C1176      C1181   1.401       .  A
C1176      H1182   1.083       .  S
C1177      C1178   1.411       .  A
C1178      C1179   1.417       .  A
C1178      H1183   1.082       .  S
C1179      C1180   1.412       .  A
C1179      H1184   1.082       .  S
C1180      C1181   1.407       .  A
C1181      H1185   1.077       .  S
C1186      C1187   1.404       .  A
C1186      C1191   1.399       .  A
C1186      H1192   1.083       .  S
C1187      C1188   1.407       .  A
C1188      C1189   1.397       .  A
C1188      H1193   1.083       .  S
C1189      C1190   1.403       .  A
C1189      H1194   1.083       .  S
C1190      C1191   1.405       .  A
C1191      H1195   1.083       .  S
C1196      C1197   1.397       .  A
C1196      C1201   1.389       .  A
C1196      H1202   1.080       .  S
C1197      C1198   1.404       .  A
C1198      C1199   1.396       .  A
C1198      H1203   1.083       .  S
C1199      C1200   1.402       .  A
C1199      H1204   1.083       .  S
C1200      C1201   1.399       .  A
C1201      H1205   1.080       .  S
C1206      C1207   1.407       .  A
C1206      C1211   1.403       .  A
C1206      H1212   1.083       .  S
C1207      C1208   1.406       .  A
C1208      C1209   1.399       .  A
C1208      H1213   1.082       .  S
C1209      C1210   1.404       .  A
C1209      H1214   1.082       .  S
C1210      C1211   1.409       .  A
C1211      H1215   1.083       .  S
C1216      C1217   1.413       .  A
C1216      C1221   1.413       .  A
C1216      H1222   1.081       .  S
C1217      C1218   1.407       .  A
C1218      C1219   1.403       .  A
C1218      H1223   1.078       .  S
C1219      C1220   1.408       .  A
C1219      H1224   1.081       .  S
C1220      C1221   1.411       .  A
C1221      H1225   1.082       .  S
O1226      C1234   1.279       .  A
O1227      C1235   1.241       .  A
O1228      C1236   1.249       .  A
O1228     Co1738   1.934       .  S
O1229      C1237   1.277       .  A
O1229     Co1494   1.932       .  S
O1230      C1236   1.266       .  A
O1231      C1237   1.291       .  A
O1231     Co1246   2.094   1_556  S
O1232      C1235   1.267       .  A
O1233      C1234   1.258       .  A
O1233     Co1248   1.941       .  S
C1234      C1339   1.483       .  S
C1235      C1255   1.513       .  S
C1236      C1303   1.495       .  S
C1237      C1267   1.537       .  S
O1238      C1251   1.276       .  A
O1239      C1252   1.250       .  A
O1239     Co1247   1.942   1_655  S
O1240      C1253   1.242       .  A
O1241      C1254   1.280       .  A
O1241     Co1249   2.018   1_545  S
O1242      C1254   1.262       .  A
O1243      C1253   1.267       .  A
O1244      C1251   1.289       .  A
O1244     Co1739   2.092       .  S
O1245      C1252   1.264       .  A
O1245     Co1493   1.992       .  S
Co1246     O1250   2.049   1_554  S
Co1248     O1718   1.934       .  S
Co1248     O1490   1.992   1_556  S
Co1249     O1474   1.932       .  S
Co1249     O1734   2.092       .  S
Co1249     O1495   2.049   1_565  S
O1250     Co1494   2.049       .  S
C1251      C1279   1.534       .  S
C1252      C1315   1.494       .  S
C1253      C1327   1.512       .  S
C1254      C1291   1.484       .  S
C1255      C1256   1.537       .  S
C1255      C1261   1.520       .  S
C1255      C1259   1.563       .  S
C1256      H1263   1.086       .  S
C1256      C1257   1.371       .  D
C1257      C1258   1.545       .  S
C1257      C1452   1.493       .  S
C1258      C1262   1.543       .  S
C1258      C1260   1.542       .  S
C1258      H1264   1.107       .  S
C1259      H1265   1.085       .  S
C1259      C1260   1.371       .  D
C1260      C1462   1.516       .  S
C1261      H1266   1.086       .  S
C1261      C1262   1.360       .  D
C1262      C1442   1.465       .  S
C1267      C1268   1.550       .  S
C1267      C1273   1.554       .  S
C1267      C1271   1.533       .  S
C1268      H1275   1.085       .  S
C1268      C1269   1.377       .  D
C1269      C1270   1.548       .  S
C1269      C1465   1.515       .  S
C1270      C1274   1.547       .  S
C1270      C1272   1.538       .  S
C1270      H1276   1.106       .  S
C1271      H1277   1.086       .  S
C1271      C1272   1.361       .  D
C1272      C1432   1.486       .  S
C1273      H1278   1.086       .  S
C1273      C1274   1.379       .  D
C1274      C1422   1.509       .  S
C1279      C1280   1.552       .  S
C1279      C1285   1.551       .  S
C1279      C1283   1.530       .  S
C1280      H1287   1.084       .  S
C1280      C1281   1.379       .  D
C1281      C1282   1.551       .  S
C1281      C1412   1.522       .  S
C1282      C1286   1.550       .  S
C1282      C1284   1.543       .  S
C1282      H1288   1.100       .  S
C1283      H1289   1.085       .  S
C1283      C1284   1.361       .  D
C1284      C1402   1.491       .  S
C1285      H1290   1.085       .  S
C1285      C1286   1.378       .  D
C1286      C1425   1.514       .  S
C1291      C1292   1.543       .  S
C1291      C1297   1.530       .  S
C1291      C1295   1.524       .  S
C1292      H1299   1.085       .  S
C1292      C1293   1.368       .  D
C1293      C1294   1.536       .  S
C1293      C1405   1.495       .  S
C1294      C1298   1.535       .  S
C1294      C1296   1.536       .  S
C1294      H1300   1.108       .  S
C1295      H1301   1.086       .  S
C1295      C1296   1.361       .  D
C1296      C1392   1.461       .  S
C1297      H1302   1.086       .  S
C1297      C1298   1.361       .  D
C1298      C1445   1.464       .  S
C1303      C1304   1.521       .  S
C1303      C1309   1.531       .  S
C1303      C1307   1.554       .  S
C1304      H1311   1.087       .  S
C1304      C1305   1.355       .  D
C1305      C1306   1.532       .  S
C1305      C1382   1.454       .  S
C1306      C1310   1.543       .  S
C1306      C1308   1.536       .  S
C1306      H1312   1.108       .  S
C1307      H1313   1.085       .  S
C1307      C1308   1.363       .  D
C1308      C1455   1.494       .  S
C1309      H1314   1.086       .  S
C1309      C1310   1.369       .  D
C1310      C1375   1.477       .  S
C1315      C1316   1.522       .  S
C1315      C1321   1.529       .  S
C1315      C1319   1.555       .  S
C1316      H1323   1.087       .  S
C1316      C1317   1.359       .  D
C1317      C1318   1.535       .  S
C1317      C1395   1.466       .  S
C1318      C1322   1.543       .  S
C1318      C1320   1.536       .  S
C1318      H1324   1.107       .  S
C1319      H1325   1.085       .  S
C1319      C1320   1.364       .  D
C1320      C1362   1.498       .  S
C1321      H1326   1.086       .  S
C1321      C1322   1.366       .  D
C1322      C1372   1.474       .  S
C1327      C1328   1.535       .  S
C1327      C1333   1.524       .  S
C1327      C1331   1.563       .  S
C1328      H1335   1.086       .  S
C1328      C1329   1.368       .  D
C1329      C1330   1.543       .  S
C1329      C1365   1.494       .  S
C1330      C1334   1.542       .  S
C1330      C1332   1.544       .  S
C1330      H1336   1.103       .  S
C1331      H1337   1.084       .  S
C1331      C1332   1.372       .  D
C1332      C1415   1.519       .  S
C1333      H1338   1.086       .  S
C1333      C1334   1.364       .  D
C1334      C1352   1.473       .  S
C1339      C1340   1.543       .  S
C1339      C1345   1.532       .  S
C1339      C1343   1.524       .  S
C1340      H1347   1.087       .  S
C1340      C1341   1.366       .  D
C1341      C1342   1.532       .  S
C1341      C1435   1.482       .  S
C1342      C1346   1.537       .  S
C1342      C1344   1.530       .  S
C1342      H1348   1.110       .  S
C1343      H1349   1.087       .  S
C1343      C1344   1.357       .  D
C1344      C1385   1.449       .  S
C1345      H1350   1.086       .  S
C1345      C1346   1.364       .  D
C1346      C1355   1.471       .  S
C1351      C1352   1.401       .  A
C1351      C1356   1.389       .  A
C1351      H1357   1.080       .  S
C1352      C1353   1.404       .  A
C1353      C1354   1.398       .  A
C1353      H1358   1.082       .  S
C1354      C1355   1.404       .  A
C1354      H1359   1.082       .  S
C1355      C1356   1.400       .  A
C1356      H1360   1.083       .  S
C1361      C1362   1.410       .  A
C1361      C1366   1.404       .  A
C1361      H1367   1.082       .  S
C1362      C1363   1.403       .  A
C1363      C1364   1.395       .  A
C1363      H1368   1.075       .  S
C1364      C1365   1.404       .  A
C1364      H1369   1.082       .  S
C1365      C1366   1.407       .  A
C1366      H1370   1.083       .  S
C1371      C1372   1.406       .  A
C1371      C1376   1.400       .  A
C1371      H1377   1.083       .  S
C1372      C1373   1.398       .  A
C1373      C1374   1.382       .  A
C1373      H1378   1.082       .  S
C1374      C1375   1.400       .  A
C1374      H1379   1.075       .  S
C1375      C1376   1.406       .  A
C1376      H1380   1.083       .  S
C1381      C1382   1.399       .  A
C1381      C1386   1.390       .  A
C1381      H1387   1.083       .  S
C1382      C1383   1.399       .  A
C1383      C1384   1.387       .  A
C1383      H1388   1.077       .  S
C1384      C1385   1.395       .  A
C1384      H1389   1.084       .  S
C1385      C1386   1.400       .  A
C1386      H1390   1.084       .  S
C1391      C1392   1.398       .  A
C1391      C1396   1.384       .  A
C1391      H1397   1.083       .  S
C1392      C1393   1.402       .  A
C1393      C1394   1.392       .  A
C1393      H1398   1.084       .  S
C1394      C1395   1.404       .  A
C1394      H1399   1.083       .  S
C1395      C1396   1.398       .  A
C1396      H1400   1.076       .  S
C1401      C1402   1.402       .  A
C1401      C1406   1.397       .  A
C1401      H1407   1.082       .  S
C1402      C1403   1.408       .  A
C1403      C1404   1.397       .  A
C1403      H1408   1.082       .  S
C1404      C1405   1.407       .  A
C1404      H1409   1.081       .  S
C1405      C1406   1.408       .  A
C1406      H1410   1.077       .  S
C1411      C1412   1.409       .  A
C1411      C1416   1.397       .  A
C1411      H1417   1.073       .  S
C1412      C1413   1.414       .  A
C1413      C1414   1.415       .  A
C1413      H1418   1.081       .  S
C1414      C1415   1.415       .  A
C1414      H1419   1.081       .  S
C1415      C1416   1.405       .  A
C1416      H1420   1.076       .  S
C1421      C1422   1.405       .  A
C1421      C1426   1.401       .  A
C1421      H1427   1.083       .  S
C1422      C1423   1.411       .  A
C1423      C1424   1.417       .  A
C1423      H1428   1.082       .  S
C1424      C1425   1.412       .  A
C1424      H1429   1.082       .  S
C1425      C1426   1.407       .  A
C1426      H1430   1.077       .  S
C1431      C1432   1.404       .  A
C1431      C1436   1.399       .  A
C1431      H1437   1.083       .  S
C1432      C1433   1.407       .  A
C1433      C1434   1.397       .  A
C1433      H1438   1.083       .  S
C1434      C1435   1.403       .  A
C1434      H1439   1.083       .  S
C1435      C1436   1.405       .  A
C1436      H1440   1.083       .  S
C1441      C1442   1.397       .  A
C1441      C1446   1.389       .  A
C1441      H1447   1.080       .  S
C1442      C1443   1.404       .  A
C1443      C1444   1.396       .  A
C1443      H1448   1.083       .  S
C1444      C1445   1.402       .  A
C1444      H1449   1.083       .  S
C1445      C1446   1.399       .  A
C1446      H1450   1.080       .  S
C1451      C1452   1.407       .  A
C1451      C1456   1.403       .  A
C1451      H1457   1.083       .  S
C1452      C1453   1.406       .  A
C1453      C1454   1.399       .  A
C1453      H1458   1.082       .  S
C1454      C1455   1.404       .  A
C1454      H1459   1.082       .  S
C1455      C1456   1.409       .  A
C1456      H1460   1.083       .  S
C1461      C1462   1.413       .  A
C1461      C1466   1.413       .  A
C1461      H1467   1.081       .  S
C1462      C1463   1.407       .  A
C1463      C1464   1.403       .  A
C1463      H1468   1.078       .  S
C1464      C1465   1.408       .  A
C1464      H1469   1.081       .  S
C1465      C1466   1.411       .  A
C1466      H1470   1.082       .  S
O1471      C1479   1.279       .  A
O1472      C1480   1.241       .  A
O1473      C1481   1.249       .  A
O1474      C1482   1.277       .  A
O1475      C1481   1.266       .  A
O1475     Co1737   1.998   1_655  S
O1476      C1482   1.291       .  A
O1476     Co1491   2.094       .  S
O1477      C1480   1.267       .  A
O1477     Co1739   2.033       .  S
O1478      C1479   1.258       .  A
O1478     Co1493   1.941   1_565  S
C1479      C1584   1.483       .  S
C1480      C1500   1.513       .  S
C1481      C1548   1.495       .  S
C1482      C1512   1.537       .  S
O1483      C1496   1.276       .  A
O1483     Co1736   1.930       .  S
O1484      C1497   1.250       .  A
O1484     Co1492   1.942   1_655  S
O1485      C1498   1.242       .  A
O1485     Co1738   1.948   1_564  S
O1486      C1499   1.280       .  A
O1486     Co1494   2.019   1_554  S
O1487      C1499   1.262       .  A
O1488      C1498   1.267       .  A
O1489      C1496   1.289       .  A
O1490      C1497   1.264       .  A
Co1491     O1728   1.930       .  S
Co1491     O1495   2.049   1_565  S
Co1492     O1720   1.998   1_454  S
Co1493     O1730   1.948   1_545  S
Co1494     O1722   2.033       .  S
C1496      C1524   1.533       .  S
C1497      C1560   1.494       .  S
C1498      C1572   1.512       .  S
C1499      C1536   1.484       .  S
C1500      C1501   1.537       .  S
C1500      C1506   1.520       .  S
C1500      C1504   1.563       .  S
C1501      H1508   1.086       .  S
C1501      C1502   1.371       .  D
C1502      C1503   1.545       .  S
C1502      C1697   1.493       .  S
C1503      C1507   1.543       .  S
C1503      C1505   1.542       .  S
C1503      H1509   1.107       .  S
C1504      H1510   1.085       .  S
C1504      C1505   1.371       .  D
C1505      C1707   1.516       .  S
C1506      H1511   1.086       .  S
C1506      C1507   1.360       .  D
C1507      C1687   1.465       .  S
C1512      C1513   1.550       .  S
C1512      C1518   1.554       .  S
C1512      C1516   1.533       .  S
C1513      H1520   1.085       .  S
C1513      C1514   1.377       .  D
C1514      C1515   1.548       .  S
C1514      C1710   1.515       .  S
C1515      C1519   1.547       .  S
C1515      C1517   1.539       .  S
C1515      H1521   1.106       .  S
C1516      H1522   1.086       .  S
C1516      C1517   1.361       .  D
C1517      C1677   1.486       .  S
C1518      H1523   1.086       .  S
C1518      C1519   1.379       .  D
C1519      C1667   1.509       .  S
C1524      C1525   1.552       .  S
C1524      C1530   1.551       .  S
C1524      C1528   1.530       .  S
C1525      H1532   1.084       .  S
C1525      C1526   1.379       .  D
C1526      C1527   1.551       .  S
C1526      C1657   1.522       .  S
C1527      C1531   1.550       .  S
C1527      C1529   1.543       .  S
C1527      H1533   1.100       .  S
C1528      H1534   1.085       .  S
C1528      C1529   1.361       .  D
C1529      C1647   1.491       .  S
C1530      H1535   1.085       .  S
C1530      C1531   1.378       .  D
C1531      C1670   1.514       .  S
C1536      C1537   1.543       .  S
C1536      C1542   1.530       .  S
C1536      C1540   1.524       .  S
C1537      H1544   1.085       .  S
C1537      C1538   1.368       .  D
C1538      C1539   1.536       .  S
C1538      C1650   1.495       .  S
C1539      C1543   1.535       .  S
C1539      C1541   1.536       .  S
C1539      H1545   1.108       .  S
C1540      H1546   1.086       .  S
C1540      C1541   1.361       .  D
C1541      C1637   1.461       .  S
C1542      H1547   1.086       .  S
C1542      C1543   1.361       .  D
C1543      C1690   1.464       .  S
C1548      C1549   1.521       .  S
C1548      C1554   1.531       .  S
C1548      C1552   1.554       .  S
C1549      H1556   1.087       .  S
C1549      C1550   1.355       .  D
C1550      C1551   1.532       .  S
C1550      C1627   1.454       .  S
C1551      C1555   1.543       .  S
C1551      C1553   1.536       .  S
C1551      H1557   1.108       .  S
C1552      H1558   1.085       .  S
C1552      C1553   1.363       .  D
C1553      C1700   1.494       .  S
C1554      H1559   1.086       .  S
C1554      C1555   1.369       .  D
C1555      C1620   1.477       .  S
C1560      C1561   1.522       .  S
C1560      C1566   1.529       .  S
C1560      C1564   1.555       .  S
C1561      H1568   1.087       .  S
C1561      C1562   1.359       .  D
C1562      C1563   1.535       .  S
C1562      C1640   1.466       .  S
C1563      C1567   1.543       .  S
C1563      C1565   1.536       .  S
C1563      H1569   1.107       .  S
C1564      H1570   1.085       .  S
C1564      C1565   1.364       .  D
C1565      C1607   1.498       .  S
C1566      H1571   1.086       .  S
C1566      C1567   1.366       .  D
C1567      C1617   1.474       .  S
C1572      C1573   1.535       .  S
C1572      C1578   1.524       .  S
C1572      C1576   1.563       .  S
C1573      H1580   1.086       .  S
C1573      C1574   1.368       .  D
C1574      C1575   1.543       .  S
C1574      C1610   1.494       .  S
C1575      C1579   1.542       .  S
C1575      C1577   1.544       .  S
C1575      H1581   1.103       .  S
C1576      H1582   1.084       .  S
C1576      C1577   1.372       .  D
C1577      C1660   1.519       .  S
C1578      H1583   1.086       .  S
C1578      C1579   1.364       .  D
C1579      C1597   1.473       .  S
C1584      C1585   1.543       .  S
C1584      C1590   1.532       .  S
C1584      C1588   1.524       .  S
C1585      H1592   1.087       .  S
C1585      C1586   1.366       .  D
C1586      C1587   1.532       .  S
C1586      C1680   1.482       .  S
C1587      C1591   1.537       .  S
C1587      C1589   1.530       .  S
C1587      H1593   1.110       .  S
C1588      H1594   1.087       .  S
C1588      C1589   1.357       .  D
C1589      C1630   1.449       .  S
C1590      H1595   1.086       .  S
C1590      C1591   1.364       .  D
C1591      C1600   1.471       .  S
C1596      C1597   1.401       .  A
C1596      C1601   1.389       .  A
C1596      H1602   1.080       .  S
C1597      C1598   1.404       .  A
C1598      C1599   1.398       .  A
C1598      H1603   1.082       .  S
C1599      C1600   1.404       .  A
C1599      H1604   1.082       .  S
C1600      C1601   1.400       .  A
C1601      H1605   1.083       .  S
C1606      C1607   1.410       .  A
C1606      C1611   1.404       .  A
C1606      H1612   1.082       .  S
C1607      C1608   1.403       .  A
C1608      C1609   1.395       .  A
C1608      H1613   1.075       .  S
C1609      C1610   1.404       .  A
C1609      H1614   1.082       .  S
C1610      C1611   1.407       .  A
C1611      H1615   1.083       .  S
C1616      C1617   1.406       .  A
C1616      C1621   1.400       .  A
C1616      H1622   1.083       .  S
C1617      C1618   1.398       .  A
C1618      C1619   1.382       .  A
C1618      H1623   1.082       .  S
C1619      C1620   1.400       .  A
C1619      H1624   1.075       .  S
C1620      C1621   1.406       .  A
C1621      H1625   1.083       .  S
C1626      C1627   1.399       .  A
C1626      C1631   1.390       .  A
C1626      H1632   1.083       .  S
C1627      C1628   1.399       .  A
C1628      C1629   1.387       .  A
C1628      H1633   1.077       .  S
C1629      C1630   1.395       .  A
C1629      H1634   1.084       .  S
C1630      C1631   1.400       .  A
C1631      H1635   1.084       .  S
C1636      C1637   1.398       .  A
C1636      C1641   1.384       .  A
C1636      H1642   1.083       .  S
C1637      C1638   1.402       .  A
C1638      C1639   1.392       .  A
C1638      H1643   1.084       .  S
C1639      C1640   1.404       .  A
C1639      H1644   1.083       .  S
C1640      C1641   1.398       .  A
C1641      H1645   1.076       .  S
C1646      C1647   1.402       .  A
C1646      C1651   1.397       .  A
C1646      H1652   1.082       .  S
C1647      C1648   1.408       .  A
C1648      C1649   1.397       .  A
C1648      H1653   1.082       .  S
C1649      C1650   1.407       .  A
C1649      H1654   1.081       .  S
C1650      C1651   1.408       .  A
C1651      H1655   1.077       .  S
C1656      C1657   1.409       .  A
C1656      C1661   1.397       .  A
C1656      H1662   1.073       .  S
C1657      C1658   1.414       .  A
C1658      C1659   1.415       .  A
C1658      H1663   1.081       .  S
C1659      C1660   1.415       .  A
C1659      H1664   1.081       .  S
C1660      C1661   1.406       .  A
C1661      H1665   1.076       .  S
C1666      C1667   1.405       .  A
C1666      C1671   1.401       .  A
C1666      H1672   1.083       .  S
C1667      C1668   1.411       .  A
C1668      C1669   1.417       .  A
C1668      H1673   1.082       .  S
C1669      C1670   1.412       .  A
C1669      H1674   1.082       .  S
C1670      C1671   1.407       .  A
C1671      H1675   1.077       .  S
C1676      C1677   1.404       .  A
C1676      C1681   1.399       .  A
C1676      H1682   1.083       .  S
C1677      C1678   1.407       .  A
C1678      C1679   1.397       .  A
C1678      H1683   1.083       .  S
C1679      C1680   1.403       .  A
C1679      H1684   1.083       .  S
C1680      C1681   1.405       .  A
C1681      H1685   1.083       .  S
C1686      C1687   1.397       .  A
C1686      C1691   1.389       .  A
C1686      H1692   1.080       .  S
C1687      C1688   1.404       .  A
C1688      C1689   1.396       .  A
C1688      H1693   1.083       .  S
C1689      C1690   1.402       .  A
C1689      H1694   1.083       .  S
C1690      C1691   1.399       .  A
C1691      H1695   1.080       .  S
C1696      C1697   1.407       .  A
C1696      C1701   1.403       .  A
C1696      H1702   1.083       .  S
C1697      C1698   1.406       .  A
C1698      C1699   1.399       .  A
C1698      H1703   1.082       .  S
C1699      C1700   1.404       .  A
C1699      H1704   1.082       .  S
C1700      C1701   1.409       .  A
C1701      H1705   1.083       .  S
C1706      C1707   1.413       .  A
C1706      C1711   1.413       .  A
C1706      H1712   1.081       .  S
C1707      C1708   1.407       .  A
C1708      C1709   1.403       .  A
C1708      H1713   1.078       .  S
C1709      C1710   1.408       .  A
C1709      H1714   1.081       .  S
C1710      C1711   1.411       .  A
C1711      H1715   1.082       .  S
O1716      C1724   1.279       .  A
O1717      C1725   1.241       .  A
O1718      C1726   1.249       .  A
O1719      C1727   1.277       .  A
O1720      C1726   1.266       .  A
O1721      C1727   1.291       .  A
O1721     Co1736   2.094   1_556  S
O1722      C1725   1.267       .  A
O1723      C1724   1.258       .  A
O1723     Co1738   1.941   1_565  S
C1724      C1829   1.483       .  S
C1725      C1745   1.513       .  S
C1726      C1793   1.495       .  S
C1727      C1757   1.537       .  S
O1728      C1741   1.276       .  A
O1729      C1742   1.250       .  A
O1729     Co1737   1.942   1_655  S
O1730      C1743   1.242       .  A
O1731      C1744   1.280       .  A
O1731     Co1739   2.019       .  S
O1732      C1744   1.262       .  A
O1733      C1743   1.267       .  A
O1734      C1741   1.289       .  A
O1735      C1742   1.264       .  A
Co1736     O1740   2.049   1_564  S
C1741      C1769   1.533       .  S
C1742      C1805   1.494       .  S
C1743      C1817   1.512       .  S
C1744      C1781   1.484       .  S
C1745      C1746   1.537       .  S
C1745      C1751   1.520       .  S
C1745      C1749   1.563       .  S
C1746      H1753   1.086       .  S
C1746      C1747   1.371       .  D
C1747      C1748   1.545       .  S
C1747      C1942   1.493       .  S
C1748      C1752   1.543       .  S
C1748      C1750   1.542       .  S
C1748      H1754   1.107       .  S
C1749      H1755   1.085       .  S
C1749      C1750   1.371       .  D
C1750      C1952   1.516       .  S
C1751      H1756   1.086       .  S
C1751      C1752   1.360       .  D
C1752      C1932   1.465       .  S
C1757      C1758   1.550       .  S
C1757      C1763   1.554       .  S
C1757      C1761   1.533       .  S
C1758      H1765   1.085       .  S
C1758      C1759   1.377       .  D
C1759      C1760   1.548       .  S
C1759      C1955   1.515       .  S
C1760      C1764   1.547       .  S
C1760      C1762   1.539       .  S
C1760      H1766   1.106       .  S
C1761      H1767   1.086       .  S
C1761      C1762   1.361       .  D
C1762      C1922   1.486       .  S
C1763      H1768   1.086       .  S
C1763      C1764   1.379       .  D
C1764      C1912   1.509       .  S
C1769      C1770   1.552       .  S
C1769      C1775   1.551       .  S
C1769      C1773   1.530       .  S
C1770      H1777   1.084       .  S
C1770      C1771   1.379       .  D
C1771      C1772   1.551       .  S
C1771      C1902   1.522       .  S
C1772      C1776   1.550       .  S
C1772      C1774   1.543       .  S
C1772      H1778   1.100       .  S
C1773      H1779   1.085       .  S
C1773      C1774   1.361       .  D
C1774      C1892   1.491       .  S
C1775      H1780   1.085       .  S
C1775      C1776   1.378       .  D
C1776      C1915   1.514       .  S
C1781      C1782   1.543       .  S
C1781      C1787   1.530       .  S
C1781      C1785   1.524       .  S
C1782      H1789   1.085       .  S
C1782      C1783   1.368       .  D
C1783      C1784   1.536       .  S
C1783      C1895   1.495       .  S
C1784      C1788   1.535       .  S
C1784      C1786   1.536       .  S
C1784      H1790   1.108       .  S
C1785      H1791   1.086       .  S
C1785      C1786   1.361       .  D
C1786      C1882   1.461       .  S
C1787      H1792   1.086       .  S
C1787      C1788   1.361       .  D
C1788      C1935   1.464       .  S
C1793      C1794   1.521       .  S
C1793      C1799   1.531       .  S
C1793      C1797   1.554       .  S
C1794      H1801   1.087       .  S
C1794      C1795   1.355       .  D
C1795      C1796   1.532       .  S
C1795      C1872   1.454       .  S
C1796      C1800   1.543       .  S
C1796      C1798   1.536       .  S
C1796      H1802   1.108       .  S
C1797      H1803   1.085       .  S
C1797      C1798   1.363       .  D
C1798      C1945   1.494       .  S
C1799      H1804   1.086       .  S
C1799      C1800   1.369       .  D
C1800      C1865   1.477       .  S
C1805      C1806   1.522       .  S
C1805      C1811   1.529       .  S
C1805      C1809   1.555       .  S
C1806      H1813   1.087       .  S
C1806      C1807   1.359       .  D
C1807      C1808   1.535       .  S
C1807      C1885   1.466       .  S
C1808      C1812   1.543       .  S
C1808      C1810   1.536       .  S
C1808      H1814   1.107       .  S
C1809      H1815   1.085       .  S
C1809      C1810   1.364       .  D
C1810      C1852   1.498       .  S
C1811      H1816   1.086       .  S
C1811      C1812   1.366       .  D
C1812      C1862   1.474       .  S
C1817      C1818   1.535       .  S
C1817      C1823   1.524       .  S
C1817      C1821   1.563       .  S
C1818      H1825   1.086       .  S
C1818      C1819   1.368       .  D
C1819      C1820   1.543       .  S
C1819      C1855   1.494       .  S
C1820      C1824   1.542       .  S
C1820      C1822   1.544       .  S
C1820      H1826   1.103       .  S
C1821      H1827   1.084       .  S
C1821      C1822   1.372       .  D
C1822      C1905   1.519       .  S
C1823      H1828   1.086       .  S
C1823      C1824   1.364       .  D
C1824      C1842   1.473       .  S
C1829      C1830   1.543       .  S
C1829      C1835   1.532       .  S
C1829      C1833   1.524       .  S
C1830      H1837   1.087       .  S
C1830      C1831   1.366       .  D
C1831      C1832   1.532       .  S
C1831      C1925   1.482       .  S
C1832      C1836   1.537       .  S
C1832      C1834   1.530       .  S
C1832      H1838   1.110       .  S
C1833      H1839   1.087       .  S
C1833      C1834   1.357       .  D
C1834      C1875   1.449       .  S
C1835      H1840   1.086       .  S
C1835      C1836   1.364       .  D
C1836      C1845   1.471       .  S
C1841      C1842   1.401       .  A
C1841      C1846   1.389       .  A
C1841      H1847   1.080       .  S
C1842      C1843   1.404       .  A
C1843      C1844   1.398       .  A
C1843      H1848   1.082       .  S
C1844      C1845   1.404       .  A
C1844      H1849   1.082       .  S
C1845      C1846   1.400       .  A
C1846      H1850   1.083       .  S
C1851      C1852   1.410       .  A
C1851      C1856   1.404       .  A
C1851      H1857   1.082       .  S
C1852      C1853   1.403       .  A
C1853      C1854   1.395       .  A
C1853      H1858   1.075       .  S
C1854      C1855   1.404       .  A
C1854      H1859   1.082       .  S
C1855      C1856   1.407       .  A
C1856      H1860   1.083       .  S
C1861      C1862   1.406       .  A
C1861      C1866   1.400       .  A
C1861      H1867   1.083       .  S
C1862      C1863   1.398       .  A
C1863      C1864   1.382       .  A
C1863      H1868   1.082       .  S
C1864      C1865   1.400       .  A
C1864      H1869   1.075       .  S
C1865      C1866   1.406       .  A
C1866      H1870   1.083       .  S
C1871      C1872   1.399       .  A
C1871      C1876   1.390       .  A
C1871      H1877   1.083       .  S
C1872      C1873   1.399       .  A
C1873      C1874   1.387       .  A
C1873      H1878   1.077       .  S
C1874      C1875   1.395       .  A
C1874      H1879   1.084       .  S
C1875      C1876   1.400       .  A
C1876      H1880   1.084       .  S
C1881      C1882   1.398       .  A
C1881      C1886   1.384       .  A
C1881      H1887   1.083       .  S
C1882      C1883   1.402       .  A
C1883      C1884   1.392       .  A
C1883      H1888   1.084       .  S
C1884      C1885   1.404       .  A
C1884      H1889   1.083       .  S
C1885      C1886   1.398       .  A
C1886      H1890   1.076       .  S
C1891      C1892   1.402       .  A
C1891      C1896   1.397       .  A
C1891      H1897   1.082       .  S
C1892      C1893   1.408       .  A
C1893      C1894   1.397       .  A
C1893      H1898   1.082       .  S
C1894      C1895   1.407       .  A
C1894      H1899   1.081       .  S
C1895      C1896   1.408       .  A
C1896      H1900   1.077       .  S
C1901      C1902   1.409       .  A
C1901      C1906   1.397       .  A
C1901      H1907   1.073       .  S
C1902      C1903   1.414       .  A
C1903      C1904   1.415       .  A
C1903      H1908   1.081       .  S
C1904      C1905   1.415       .  A
C1904      H1909   1.081       .  S
C1905      C1906   1.406       .  A
C1906      H1910   1.076       .  S
C1911      C1912   1.405       .  A
C1911      C1916   1.401       .  A
C1911      H1917   1.083       .  S
C1912      C1913   1.411       .  A
C1913      C1914   1.417       .  A
C1913      H1918   1.082       .  S
C1914      C1915   1.412       .  A
C1914      H1919   1.082       .  S
C1915      C1916   1.407       .  A
C1916      H1920   1.077       .  S
C1921      C1922   1.404       .  A
C1921      C1926   1.399       .  A
C1921      H1927   1.083       .  S
C1922      C1923   1.407       .  A
C1923      C1924   1.397       .  A
C1923      H1928   1.083       .  S
C1924      C1925   1.403       .  A
C1924      H1929   1.083       .  S
C1925      C1926   1.405       .  A
C1926      H1930   1.083       .  S
C1931      C1932   1.397       .  A
C1931      C1936   1.389       .  A
C1931      H1937   1.080       .  S
C1932      C1933   1.404       .  A
C1933      C1934   1.396       .  A
C1933      H1938   1.083       .  S
C1934      C1935   1.402       .  A
C1934      H1939   1.083       .  S
C1935      C1936   1.399       .  A
C1936      H1940   1.080       .  S
C1941      C1942   1.407       .  A
C1941      C1946   1.403       .  A
C1941      H1947   1.083       .  S
C1942      C1943   1.406       .  A
C1943      C1944   1.399       .  A
C1943      H1948   1.082       .  S
C1944      C1945   1.404       .  A
C1944      H1949   1.082       .  S
C1945      C1946   1.409       .  A
C1946      H1950   1.083       .  S
C1951      C1952   1.413       .  A
C1951      C1956   1.413       .  A
C1951      H1957   1.081       .  S
C1952      C1953   1.407       .  A
C1953      C1954   1.403       .  A
C1953      H1958   1.078       .  S
C1954      C1955   1.408       .  A
C1954      H1959   1.081       .  S
C1955      C1956   1.411       .  A
C1956      H1960   1.082       .  S
