geometry optimzed in LAMMPS
_audit_creation_date              2020-12-01 
_audit_creation_method            'lammps2cif' 
_symmetry_space_group_name_H-M    'P1' 
_symmetry_Int_Tables_number       1 
_symmetry_cell_setting            triclinic 
loop_ 
_symmetry_equiv_pos_as_xyz 
  x,y,z 
_cell_length_a                    44.13617722 
_cell_length_b                    42.06065022562465 
_cell_length_c                    44.05882021664047 
_cell_angle_alpha                 89.00609614913877 
_cell_angle_beta                  91.39728085143841 
_cell_angle_gamma                 90.41706592432784 
loop_ 
_atom_site_label 
_atom_site_type_symbol 
_atom_site_fract_x 
_atom_site_fract_y 
_atom_site_fract_z 
_atom_site_charge 
O1          O  0.20360656  0.20605074  0.21847038    -0.78600
O2          O  0.27999586  0.20185659  0.26760952    -0.78700
O3          O  0.27518520  0.21441859  0.19992106    -0.78700
O4          O  0.21705080  0.24043044  0.31582529    -0.78600
O5          O  0.31948152  0.22137307  0.22317267    -0.78700
O6          O  0.20099578  0.20727137  0.28047005    -0.78700
O7          O  0.27789443  0.23194372  0.30824080    -0.78600
O8          O  0.21804528  0.23824686  0.18268764    -0.78700
C9          C  0.20269131  0.21413468  0.19086858     1.11000
C10         C  0.28446388  0.20557660  0.29587739     1.10900
C11         C  0.30404046  0.20845627  0.20211905     1.11100
C12         C  0.20285689  0.21540228  0.30802341     1.10900
O13         O  0.18043559  0.27144095  0.27726516    -0.78600
O14         O  0.29599585  0.27952634  0.21310988    -0.78700
O15         O  0.23113341  0.29854947  0.21000459    -0.78700
O16         O  0.28003759  0.29663582  0.28061358    -0.78600
O17         O  0.31269576  0.26020346  0.27155180    -0.78700
O18         O  0.18706579  0.27399882  0.21573709    -0.78700
O19         O  0.21913214  0.30272420  0.28850533    -0.78600
O20         O  0.27003266  0.27077916  0.17073583    -0.78700
Co21       Co  0.19637337  0.23980444  0.24793691     1.51500
Co22       Co  0.28471379  0.23959074  0.24065926     1.51700
Co23       Co  0.25249276  0.25754353  0.20781061     1.51600
Co24       Co  0.24846687  0.26745051  0.29516953     1.51500
O25         O  0.24164400  0.25099920  0.25194223    -1.40600
C26         C  0.19089994  0.29705179  0.28826247     1.11000
C27         C  0.29260136  0.28354014  0.18393560     1.11100
C28         C  0.20254883  0.29834894  0.20731150     1.11000
C29         C  0.30669174  0.28658226  0.28320334     1.11000
C30         C  0.34143343  0.34294467  0.34359165     0.88000
C31         C  0.36800872  0.36024124  0.32855072    -0.52300
C32         C  0.38651619  0.37602820  0.34847347     0.10900
C33         C  0.37690121  0.37273282  0.38178873     0.21900
C34         C  0.35599942  0.32099954  0.36803486    -0.53000
C35         C  0.37496959  0.33655423  0.38783887     0.11000
C36         C  0.32539663  0.36863578  0.36164707    -0.52500
C37         C  0.34376345  0.38429640  0.38185587     0.11600
H38         H  0.37158570  0.36039121  0.30424073     0.16100
H39         H  0.39231385  0.38487286  0.39801464     0.01800
H40         H  0.35208035  0.29548928  0.36922967     0.16400
H41         H  0.30137786  0.37375032  0.35893991     0.16200
C42         C  0.34068958  0.16146485  0.35202449     0.88000
C43         C  0.32407513  0.13469348  0.36974578    -0.52300
C44         C  0.34336586  0.11298495  0.38325987     0.10900
C45         C  0.37684498  0.12009216  0.37819604     0.21900
C46         C  0.36319060  0.17589146  0.37556909    -0.53000
C47         C  0.38208420  0.15407468  0.38930655     0.11000
C48         C  0.36119471  0.14404863  0.32977295    -0.52500
C49         C  0.37976022  0.12197013  0.34358094     0.11600
H50         H  0.29958816  0.13291188  0.37103232     0.16100
H51         H  0.39236168  0.10270731  0.38963438     0.01800
H52         H  0.36358962  0.20088226  0.38135918     0.16400
H53         H  0.36080730  0.14854174  0.30542323     0.16200
C54         C  0.15468254  0.36014924  0.34047669     0.88000
C55         C  0.16983768  0.38511049  0.36129611    -0.52300
C56         C  0.14968965  0.40211571  0.37747210     0.10900
C57         C  0.11659823  0.39259312  0.37151536     0.21900
C58         C  0.13516184  0.33952328  0.36220674    -0.53000
C59         C  0.11505753  0.35687275  0.37833051     0.11000
C60         C  0.13148215  0.37923058  0.32059868    -0.52500
C61         C  0.11138798  0.39598222  0.33720981     0.11600
H62         H  0.19415014  0.38914096  0.36282442     0.16100
H63         H  0.10044220  0.40651624  0.38488751     0.01800
H64         H  0.13658380  0.31379723  0.36392792     0.16400
H65         H  0.13067894  0.37878063  0.29596777     0.16200
C66         C  0.14382288  0.16034223  0.34658372     0.88000
C67         C  0.12195357  0.13702865  0.33073773    -0.52300
C68         C  0.10353674  0.12079139  0.34987480     0.10900
C69         C  0.10812525  0.12999917  0.38330203     0.21900
C70         C  0.12314707  0.18244042  0.36459690    -0.53000
C71         C  0.10432071  0.16620941  0.38386257     0.11000
C72         C  0.16077855  0.14001394  0.37086692    -0.52500
C73         C  0.14182118  0.12432657  0.39028545     0.11600
H74         H  0.12143098  0.13318316  0.30639877     0.16100
H75         H  0.09299924  0.11732060  0.39926572     0.01800
H76         H  0.12301659  0.20812550  0.36177328     0.16400
H77         H  0.18530219  0.13850307  0.37257232     0.16200
N78         N  0.00162129  0.45860739  0.29333815    -0.35100
N79         N  0.44732454  0.99739675  0.32020083    -0.55700
N80         N  0.99212944  0.04499865  0.33301613    -0.35100
N81         N  0.03684036  0.99532641  0.33381614    -0.55700
C82         C  0.47682355  0.43152069  0.34368102     0.28500
C83         C  0.02698627  0.44064885  0.29307286     0.28500
C84         C  0.46294724  0.06401546  0.33718561     0.28500
C85         C  0.01779157  0.06273932  0.33440219     0.28500
C86         C  0.43783017  0.47327786  0.33331928     0.37100
C87         C  0.42786827  0.02205531  0.31738978     0.37100
C88         C  0.06613038  0.48445979  0.29290821     0.37100
C89         C  0.05369522  0.01883223  0.34643331     0.37100
C90         C  0.48590178  0.40203317  0.35510171    -0.20400
C91         C  0.01879994  0.40875761  0.29477861    -0.20400
C92         C  0.46854328  0.09138424  0.35364665    -0.20400
C93         C  0.01061082  0.09447454  0.32930946    -0.20400
C94         C  0.40826862  0.48233281  0.32651409    -0.21500
C95         C  0.39979292  0.01139446  0.30694662    -0.21500
C96         C  0.09589440  0.49520346  0.29180215    -0.21500
C97         C  0.07977788  0.00644401  0.36003809    -0.21500
C98         C  0.44645492  0.44211033  0.34192679    -0.16800
C99         C  0.05747917  0.45190725  0.29236874    -0.16800
C100        C  0.04644038  0.05143854  0.34464240    -0.16800
C101        C  0.43363917  0.05300427  0.32826498    -0.16800
H102        H  0.47178504  0.38338400  0.36456701     0.16100
H103        H  0.03361351  0.38837417  0.29463597     0.16100
H104        H  0.45226639  0.10801267  0.36200123     0.16100
H105        H  0.02547786  0.11496941  0.33027246     0.16100
H106        H  0.38844142  0.46711726  0.32465223     0.14400
H107        H  0.37940409  0.02524636  0.30335407     0.14400
H108        H  0.11592641  0.48138139  0.28770761     0.14400
H109        H  0.09785956  0.01921469  0.37167793     0.14400
H110        H  0.00072446  0.48300906  0.29024645     0.27600
H111        H  0.98995554  0.02174426  0.34083058     0.27600
C112        C  0.35874865  0.33806710  0.15587094     0.88000
C113        C  0.34254803  0.35920778  0.13167844    -0.52300
C114        C  0.36182771  0.37590891  0.11349664     0.10900
C115        C  0.39549444  0.36988021  0.12116576     0.21900
C116        C  0.38004873  0.31684497  0.13758257    -0.53000
C117        C  0.39943783  0.33383562  0.11955955     0.11000
C118        C  0.38004694  0.36122909  0.17318603    -0.52500
C119        C  0.39913808  0.37790128  0.15473337     0.11600
H120        H  0.31806890  0.36113900  0.12941859     0.16100
H121        H  0.41150453  0.38307998  0.10645050     0.01800
H122        H  0.38025901  0.29106738  0.13938408     0.16400
H123        H  0.38005991  0.36408961  0.19763306     0.16200
C124        C  0.14476266  0.34522868  0.15608051     0.88000
C125        C  0.12764136  0.36595156  0.17827412    -0.52300
C126        C  0.10787316  0.38668040  0.16442501     0.10900
C127        C  0.10655034  0.38424412  0.12950914     0.21900
C128        C  0.11977440  0.32889682  0.13716740    -0.53000
C129        C  0.10000085  0.34913081  0.12294883     0.11000
C130        C  0.15975473  0.36898788  0.13338903    -0.52500
C131        C  0.13930480  0.38945046  0.11924526     0.11600
H132        H  0.13060420  0.36407517  0.20278792     0.16100
H133        H  0.08984768  0.40039397  0.11812639     0.01800
H134        H  0.11797947  0.30325675  0.13515991     0.16400
H135        H  0.18374685  0.36892229  0.12861898     0.16200
N136        N  0.04716901  0.29462052  0.00710316    -0.35100
N137        N  0.00029685  0.29817916  0.05333154    -0.55700
N138        N  0.45261122  0.29366378  0.00385234    -0.35100
N139        N  0.01494283  0.30934272  0.44646677    -0.55700
C140        C  0.06444976  0.30250752  0.03170144     0.28500
C141        C  0.07833951  0.31084394  0.47078039     0.28500
C142        C  0.43623005  0.29954651  0.02879041     0.28500
C143        C  0.42707161  0.31556569  0.47670483     0.28500
C144        C  0.02527885  0.29648786  0.07153365     0.37100
C145        C  0.47323300  0.28077393  0.06836123     0.37100
C146        C  0.03960412  0.30678174  0.42895921     0.37100
C147        C  0.46713186  0.30423019  0.43899475     0.37100
C148        C  0.09340378  0.31065058  0.02256673    -0.20400
C149        C  0.10549504  0.32290055  0.48233660    -0.20400
C150        C  0.41142540  0.31808988  0.02057418    -0.20400
C151        C  0.40065535  0.33057857  0.48491000    -0.20400
C152        C  0.01724221  0.29068135  0.10134129    -0.21500
C153        C  0.48172892  0.27202809  0.09779786    -0.21500
C154        C  0.03063659  0.30498887  0.39865000    -0.21500
C155        C  0.47656897  0.30009743  0.40951271    -0.21500
C156        C  0.05508371  0.30281364  0.06220687    -0.16800
C157        C  0.07006968  0.31041909  0.43948229    -0.16800
C158        C  0.43797274  0.31486983  0.44662080    -0.16800
C159        C  0.44359123  0.28986618  0.05902647    -0.16800
H160        H  0.11245811  0.31819588  0.03666778     0.16100
H161        H  0.12388877  0.33342233  0.46972643     0.16100
H162        H  0.39428560  0.32712142  0.03525900     0.16100
H163        H  0.38495578  0.34370583  0.47031925     0.16100
H164        H  0.03216380  0.28860184  0.12112958     0.14400
H165        H  0.46707793  0.26797948  0.11684569     0.14400
H166        H  0.04499585  0.30327493  0.37919509     0.14400
H167        H  0.46310220  0.30246236  0.38874108     0.14400
H168        H  0.02538709  0.28519936  0.00725597     0.27600
H169        H  0.47087743  0.27825823  0.00278241     0.27600
C170        C  0.13960148  0.15891156  0.15520074     0.88000
C171        C  0.15866870  0.13664984  0.13612481    -0.52300
C172        C  0.14217834  0.11904815  0.11595011     0.10900
C173        C  0.10791728  0.12494852  0.11689790     0.21900
C174        C  0.12057633  0.17891492  0.13194758    -0.53000
C175        C  0.10400019  0.16077611  0.11190246     0.11000
C176        C  0.11607424  0.13650770  0.17035116    -0.52500
C177        C  0.09942775  0.11866616  0.15000294     0.11600
H178        H  0.18313912  0.13473966  0.13862901     0.16100
H179        H  0.09416734  0.11053611  0.10073146     0.01800
H180        H  0.12056510  0.20472801  0.13120721     0.16400
H181        H  0.11320093  0.13494565  0.19471084     0.16200
N182        N  0.00047956  0.45743991  0.19623780    -0.35100
N183        N  0.46470656  0.00575181  0.18628287    -0.55700
N184        N  0.98764841  0.04872977  0.18988936    -0.35100
N185        N  0.03581390  0.00285491  0.18884883    -0.55700
C186        C  0.47131357  0.44032042  0.19443466     0.28500
C187        C  0.02490567  0.44309550  0.18449168     0.28500
C188        C  0.48797501  0.07265334  0.18257065     0.28500
C189        C  0.01137523  0.06818271  0.18353184     0.28500
C190        C  0.43283190  0.48172517  0.18495559     0.37100
C191        C  0.44679888  0.03148105  0.18163104     0.37100
C192        C  0.06225221  0.48710005  0.19143027     0.37100
C193        C  0.05303303  0.02933608  0.19260443     0.37100
C194        C  0.48055053  0.41074121  0.20541490    -0.20400
C195        C  0.01611435  0.41408511  0.17249757    -0.20400
C196        C  0.49846645  0.10286516  0.18956177    -0.20400
C197        C  0.00056286  0.09701680  0.17225626    -0.20400
C198        C  0.40434334  0.49246313  0.17604016    -0.21500
C199        C  0.41686473  0.02185143  0.17756462    -0.21500
C200        C  0.09147458  0.49856045  0.19592443    -0.21500
C201        C  0.08328660  0.02114076  0.19627023    -0.21500
C202        C  0.44086483  0.44952805  0.18979742    -0.16800
C203        C  0.05491837  0.45538325  0.18425245    -0.16800
C204        C  0.04247096  0.06081025  0.18824511    -0.16800
C205        C  0.45692423  0.06357405  0.18120570    -0.16800
H206        H  0.46645291  0.39212021  0.21496682     0.16100
H207        H  0.03004997  0.39703981  0.16127469     0.16100
H208        H  0.48515417  0.12305623  0.19602556     0.16100
H209        H  0.01369345  0.11762977  0.16538520     0.16100
H210        H  0.38410161  0.47838563  0.17185363     0.14400
H211        H  0.39726897  0.03669769  0.17315757     0.14400
H212        H  0.11223955  0.48500576  0.19689130     0.14400
H213        H  0.10258353  0.03701386  0.19862194     0.14400
H214        H  0.00065565  0.47815812  0.20880090     0.27600
H215        H  0.98888272  0.02712957  0.20164191     0.27600
N216        N  0.17667712  0.45346981  0.00084915    -0.35100
N217        N  0.18515213  0.00226377  0.44598401    -0.55700
N218        N  0.16515142  0.04967874  0.99836455    -0.35100
N219        N  0.16547254  0.00270228  0.04944305    -0.55700
C220        C  0.17954621  0.43792771  0.47232634     0.28500
C221        C  0.18121336  0.43589945  0.02674950     0.28500
C222        C  0.18278031  0.06812030  0.47067234     0.28500
C223        C  0.16516271  0.06867127  0.02280878     0.28500
C224        C  0.18961513  0.48269750  0.43588634     0.37100
C225        C  0.18018522  0.02874581  0.42878711     0.37100
C226        C  0.16813989  0.47739929  0.06382302     0.37100
C227        C  0.15425734  0.02821921  0.06349887     0.37100
C228        C  0.16964271  0.40718425  0.47875492    -0.20400
C229        C  0.19106245  0.40588561  0.01924518    -0.20400
C230        C  0.18647447  0.09872449  0.48140296    -0.20400
C231        C  0.17320860  0.09937649  0.01410508    -0.20400
C232        C  0.19816977  0.49480522  0.40788619    -0.21500
C233        C  0.17314440  0.02054405  0.39906174    -0.21500
C234        C  0.15763983  0.48760356  0.09137781    -0.21500
C235        C  0.14291815  0.01895791  0.09140559    -0.21500
C236        C  0.18501446  0.45006316  0.44271020    -0.16800
C237        C  0.17385498  0.44520319  0.05656579    -0.16800
C238        C  0.15522760  0.05991622  0.05207226    -0.16800
C239        C  0.18107735  0.06025280  0.43950280    -0.16800
H240        H  0.16431878  0.38860591  0.46274020     0.16100
H241        H  0.19594352  0.38607028  0.03453062     0.16100
H242        H  0.19030891  0.12025946  0.46820318     0.16100
H243        H  0.17479532  0.12007670  0.02833497     0.16100
H244        H  0.20423982  0.48152888  0.38813020     0.14400
H245        H  0.16771734  0.03631727  0.38005809     0.14400
H246        H  0.15220206  0.47350136  0.11127078     0.14400
H247        H  0.13272230  0.03383789  0.10809607     0.14400
H248        H  0.16549795  0.47501515  0.99897754     0.27600
H249        H  0.15617117  0.02679426  0.99768779     0.27600
N250        N  0.98455033  0.19764817  0.05232263    -0.35100
N251        N  0.46672442  0.20043059  0.99246086    -0.55700
N252        N  0.00099895  0.22383733  0.44285438    -0.35100
N253        N  0.03328628  0.19960563  0.00896550    -0.55700
C254        C  0.49233430  0.19570300  0.05570506     0.28500
C255        C  0.00904699  0.19182346  0.07071262     0.28500
C256        C  0.47556818  0.19075732  0.43323032     0.28500
C257        C  0.02544265  0.21839931  0.42561060     0.28500
C258        C  0.44991559  0.20173663  0.01775956     0.37100
C259        C  0.43467371  0.19442456  0.47091110     0.37100
C260        C  0.04929715  0.20686271  0.03452463     0.37100
C261        C  0.06589207  0.22172177  0.46628564     0.37100
C262        C  0.50391996  0.18590364  0.08383075    -0.20400
C263        C  0.99990613  0.17540539  0.09652373    -0.20400
C264        C  0.48584977  0.18270945  0.40492163    -0.20400
C265        C  0.01569908  0.21280304  0.39599605    -0.20400
C266        C  0.41946359  0.20387891  0.00980428    -0.21500
C267        C  0.40491776  0.19953896  0.47869936    -0.21500
C268        C  0.07855877  0.21594208  0.02726337    -0.21500
C269        C  0.09570277  0.22609450  0.47605318    -0.21500
C270        C  0.46100095  0.19545420  0.04762382    -0.16800
C271        C  0.03957371  0.19981261  0.06432402    -0.16800
C272        C  0.05636981  0.21849829  0.43555889    -0.16800
C273        C  0.44456398  0.19172853  0.44080225    -0.16800
H274        H  0.49136453  0.17764051  0.10327218     0.16100
H275        H  0.01407498  0.16689490  0.11530784     0.16100
H276        H  0.47237577  0.17585225  0.38521175     0.16100
H277        H  0.02949530  0.20832271  0.37658208     0.16100
H278        H  0.40048880  0.20418345  0.02489968     0.14400
H279        H  0.38567688  0.20394112  0.46354562     0.14400
H280        H  0.09689032  0.22233836  0.04279166     0.14400
H281        H  0.11529797  0.23005634  0.46215534     0.14400
H282        H  0.98442575  0.21155315  0.03254001     0.27600
H283        H  0.00146110  0.23132436  0.46517357     0.27600
C284        C  0.36689406  0.16914243  0.15293124     0.88000
C285        C  0.39141577  0.14762114  0.16790181    -0.52300
C286        C  0.40882525  0.13230515  0.14754778     0.10900
C287        C  0.40024793  0.13970604  0.11434493     0.21900
C288        C  0.38461840  0.19148536  0.13126594    -0.53000
C289        C  0.40231396  0.17625169  0.11096639     0.11000
C290        C  0.34880372  0.14667461  0.13175620    -0.52500
C291        C  0.36624983  0.13108735  0.11165261     0.11600
H292        H  0.39481074  0.14502496  0.19230988     0.16100
H293        H  0.41462819  0.12623842  0.09911773     0.01800
H294        H  0.38368564  0.21723996  0.13241894     0.16400
H295        H  0.32469992  0.14204549  0.13308837     0.16200
N296        N  0.34738903  0.05324057  0.99708905    -0.35100
N297        N  0.35154494  0.50368657  0.04656049    -0.55700
N298        N  0.34233782  0.45250259  0.00212667    -0.35100
N299        N  0.32558966  0.50566665  0.44975703    -0.55700
C300        C  0.34723689  0.07316666  0.02087568     0.28500
C301        C  0.31938456  0.06734069  0.47533022     0.28500
C302        C  0.35421134  0.43575221  0.02605140     0.28500
C303        C  0.33228947  0.43856276  0.47336022     0.28500
C304        C  0.36211405  0.03507128  0.06256638     0.37100
C305        C  0.35425579  0.47813407  0.06550196     0.37100
C306        C  0.31189164  0.02529990  0.43699309     0.37100
C307        C  0.32867477  0.48001179  0.43203444     0.37100
C308        C  0.33649365  0.10263825  0.01132208    -0.20400
C309        C  0.33172582  0.09665309  0.48294308    -0.20400
C310        C  0.36430046  0.40660063  0.01618142    -0.20400
C311        C  0.33818694  0.40785941  0.48373248    -0.20400
C312        C  0.37066226  0.02782724  0.09233182    -0.21500
C313        C  0.35700075  0.48800349  0.09535288    -0.21500
C314        C  0.30662352  0.01460217  0.40773217    -0.21500
C315        C  0.32636851  0.48904371  0.40169358    -0.21500
C316        C  0.35808249  0.06627375  0.05065047    -0.16800
C317        C  0.31274138  0.05773348  0.44527498    -0.16800
C318        C  0.33519117  0.44886847  0.44275003    -0.16800
C319        C  0.35706735  0.44615480  0.05646657    -0.16800
H320        H  0.33394646  0.12361604  0.02490171     0.16100
H321        H  0.33742662  0.11616039  0.46772796     0.16100
H322        H  0.37508874  0.38792125  0.02964463     0.16100
H323        H  0.34561581  0.38794510  0.47065371     0.16100
H324        H  0.37549071  0.04419533  0.11053496     0.14400
H325        H  0.36000055  0.47331684  0.11560715     0.14400
H326        H  0.29974053  0.02853878  0.38790153     0.14400
H327        H  0.32842504  0.47411869  0.38210005     0.14400
H328        H  0.35780622  0.03124641  0.99696896     0.27600
H329        H  0.33111163  0.47401333  0.00337588     0.27600
C330        C  0.35372017  0.10513761  0.09235507    -0.14900
C331        C  0.36888783  0.09367435  0.06891465    -0.30100
H332        H  0.33190880  0.09470879  0.09792441     0.14100
H333        H  0.38945498  0.10526410  0.06141033     0.14700
C334        C  0.43982709  0.17913283  0.06899922    -0.14900
C335        C  0.42250136  0.19393954  0.08922730    -0.30100
H336        H  0.43933144  0.15354927  0.06734766     0.14100
H337        H  0.42340427  0.21972935  0.09010264     0.14700
C338        C  0.43355390  0.08908487  0.17849908    -0.14900
C339        C  0.43395972  0.11013152  0.15521160    -0.30100
H340        H  0.41419567  0.08810597  0.19325235     0.14100
H341        H  0.45192606  0.10857412  0.13887077     0.14700
C342        C  0.06303492  0.19505693  0.08911126    -0.14900
C343        C  0.08441733  0.17270484  0.08641809    -0.30100
H344        H  0.06001714  0.20625541  0.11085426     0.14100
H345        H  0.08459605  0.15906833  0.06569027     0.14700
C346        C  0.14285805  0.08563408  0.07061659    -0.14900
C347        C  0.15615391  0.09493639  0.09669111    -0.30100
H348        H  0.12297611  0.09788285  0.06153967     0.14100
H349        H  0.17759950  0.08448858  0.10407974     0.14700
C350        C  0.07539035  0.09467879  0.15699803    -0.14900
C351        C  0.06553606  0.08673458  0.18475762    -0.30100
H352        H  0.06524280  0.08238699  0.13772842     0.14100
H353        H  0.07509872  0.09771925  0.20494264     0.14700
C354        C  0.07577257  0.33846401  0.10154339    -0.14900
C355        C  0.07805237  0.31144721  0.08577825    -0.30100
H356        H  0.05666639  0.35414688  0.09706573     0.14100
H357        H  0.09833484  0.29704990  0.08771614     0.14700
C358        C  0.14523870  0.41394694  0.09494611    -0.14900
C359        C  0.17167112  0.41982927  0.08109486    -0.30100
H360        H  0.12579358  0.42801494  0.08750395     0.14100
H361        H  0.19129381  0.40520634  0.08645579     0.14700
C362        C  0.07906665  0.43608731  0.17050544    -0.14900
C363        C  0.08788241  0.40765405  0.18172255    -0.30100
H364        H  0.08930138  0.44558400  0.15004773     0.14100
H365        H  0.07954874  0.39924941  0.20345845     0.14700
C366        C  0.42057565  0.29551671  0.08273148    -0.14900
C367        C  0.42386884  0.32069941  0.10092604    -0.30100
H368        H  0.39918694  0.28259790  0.08174317     0.14100
H369        H  0.44417996  0.33527086  0.09882280     0.14700
C370        C  0.35096017  0.39814190  0.08920358    -0.14900
C371        C  0.36785974  0.42303467  0.08010351    -0.30100
H372        H  0.32834109  0.39479906  0.07943134     0.14100
H373        H  0.38924811  0.42837269  0.09164747     0.14700
C374        C  0.41752322  0.42402420  0.18531924    -0.14900
C375        C  0.42212966  0.40146836  0.16464444    -0.30100
H376        H  0.39576000  0.42569869  0.19614200     0.14100
H377        H  0.44273161  0.40250838  0.15162284     0.14700
C378        C  0.08175911  0.09665964  0.33843125    -0.14900
C379        C  0.06911143  0.07458769  0.35649342    -0.30100
H380        H  0.07610968  0.09679132  0.31426590     0.14100
H381        H  0.07613651  0.07218827  0.38016284     0.14700
C382        C  0.15127657  0.10310097  0.41583846    -0.14900
C383        C  0.17702327  0.08634716  0.41658709    -0.30100
H384        H  0.13472372  0.09842987  0.43326709     0.14100
H385        H  0.19259959  0.08813656  0.39792541     0.14700
C386        C  0.07998622  0.20996888  0.41330009    -0.14900
C387        C  0.08079307  0.17994400  0.40328584    -0.30100
H388        H  0.09780207  0.22688213  0.40779505     0.14100
H389        H  0.06364967  0.16336119  0.41136173     0.14700
C390        C  0.09406569  0.31818488  0.41690891    -0.14900
C391        C  0.09151149  0.34430441  0.39901489    -0.30100
H392        H  0.11493665  0.30464771  0.41745414     0.14100
H393        H  0.07163599  0.35909787  0.40133085     0.14700
C394        C  0.08535012  0.41506458  0.32556243    -0.14900
C395        C  0.08223588  0.42823708  0.29768619    -0.30100
H396        H  0.06849371  0.42078383  0.34218886     0.14100
H397        H  0.09958908  0.42538819  0.28092440     0.14700
C398        C  0.15755060  0.42768288  0.39905759    -0.14900
C399        C  0.18250583  0.42749244  0.41709570    -0.30100
H400        H  0.14031848  0.44543951  0.40278793     0.14100
H401        H  0.19862232  0.40817924  0.41605621     0.14700
C402        C  0.31258628  0.08311996  0.42110687    -0.14900
C403        C  0.33488053  0.08416500  0.40096357    -0.30100
H404        H  0.29848329  0.10388919  0.42385292     0.14100
H405        H  0.35099274  0.06473241  0.40112643     0.14700
C406        C  0.40691740  0.07194125  0.33708695    -0.19600
C407        C  0.40152644  0.10195085  0.32740806    -0.30100
H408        H  0.39217378  0.06103474  0.35377146     0.14100
H409        H  0.41463404  0.11246110  0.30921466     0.14700
C410        C  0.40438076  0.16090846  0.41427892    -0.14900
C411        C  0.42117278  0.18770464  0.41595789    -0.30100
H412        H  0.40850629  0.14207798  0.43104120     0.14100
H413        H  0.41952044  0.20562876  0.39796764     0.14700
C414        C  0.33137029  0.40889124  0.40207984    -0.14900
C415        C  0.34854293  0.42618143  0.42131675    -0.30100
H416        H  0.30702271  0.41268891  0.40143327     0.14100
H417        H  0.37284163  0.42310553  0.42300188     0.14700
C418        C  0.39226879  0.31990434  0.41257434    -0.14900
C419        C  0.41975019  0.33039173  0.42174548    -0.30100
H420        H  0.38285749  0.29839423  0.42272352     0.14100
H421        H  0.43041705  0.34998742  0.40956729     0.14700
C422        C  0.41292076  0.39488986  0.33829227    -0.14900
C423        C  0.42209562  0.42085876  0.35316299    -0.30100
H424        H  0.42364974  0.38874488  0.31725920     0.14100
H425        H  0.40950921  0.42895138  0.37240805     0.14700
C426        C  0.32027855  0.32643831  0.32136132    -0.14900
C427        C  0.32914550  0.30343742  0.30265010    -0.30100
H428        H  0.29663311  0.33352500  0.32089144     0.14100
H429        H  0.35254977  0.29559551  0.30329542     0.14700
C430        C  0.30048139  0.17996694  0.31360356    -0.14900
C431        C  0.31989862  0.18634928  0.33693948    -0.30100
H432        H  0.29926854  0.15591825  0.30503290     0.14100
H433        H  0.32222134  0.21080812  0.34426223     0.14700
C434        C  0.17757392  0.34147387  0.32252621    -0.14900
C435        C  0.16917888  0.31870853  0.30280316    -0.30100
H436        H  0.20157561  0.34607597  0.32658973     0.14100
H437        H  0.14514649  0.31381236  0.29931512     0.14700
C438        C  0.33729331  0.31980283  0.17659580    -0.14900
C439        C  0.31406935  0.30239640  0.16531643    -0.30100
H440        H  0.34045282  0.32149305  0.20105151     0.14100
H441        H  0.31071907  0.30155036  0.14082442     0.14700
C442        C  0.18605265  0.19742976  0.33145818    -0.14900
C443        C  0.16399669  0.17676955  0.32378871    -0.30100
H444        H  0.18996343  0.20315877  0.35519002     0.14100
H445        H  0.15996936  0.17180369  0.29988602     0.14700
C446        C  0.16453158  0.32002452  0.17161305    -0.14900
C447        C  0.18723966  0.32556147  0.19167102    -0.30100
H448        H  0.15879504  0.29527035  0.16732097     0.14100
H449        H  0.19507163  0.34968191  0.19572260     0.14700
C450        C  0.31881465  0.18726608  0.18013785    -0.14900
C451        C  0.34930372  0.18748015  0.17653724    -0.30100
H452        H  0.30404039  0.17344635  0.16543834     0.14100
H453        H  0.36305533  0.20268831  0.19114463     0.14700
C454        C  0.18252892  0.19701183  0.16877107    -0.14900
C455        C  0.15926143  0.17795192  0.17753412    -0.30100
H456        H  0.18634583  0.20072666  0.14470395     0.14100
H457        H  0.15502624  0.17494751  0.20160588     0.14700
O458        O  0.21280851  0.19917459  0.72865035    -0.78600
O459        O  0.28464765  0.20390074  0.78158051    -0.78700
O460        O  0.27697777  0.23821739  0.68283627    -0.78700
O461        O  0.21812505  0.21430726  0.79816791    -0.78600
O462        O  0.29066989  0.20439026  0.71952309    -0.78700
O463        O  0.17397630  0.21683184  0.77371645    -0.78700
O464        O  0.27265484  0.23751292  0.81595435    -0.78600
O465        O  0.21548738  0.23093938  0.68823741    -0.78700
C466        C  0.20780944  0.20426685  0.70048498     1.11000
C467        C  0.28604882  0.21227205  0.80888808     1.10900
C468        C  0.28998847  0.21286079  0.69176778     1.11100
C469        C  0.19008957  0.20551356  0.79557818     1.10900
O470        O  0.19731696  0.27668411  0.77944657    -0.78600
O471        O  0.31378558  0.26782938  0.72149990    -0.78700
O472        O  0.21425596  0.29532895  0.71331988    -0.78700
O473        O  0.26365680  0.29783090  0.78589549    -0.78600
O474        O  0.30607372  0.27053608  0.78262043    -0.78700
O475        O  0.18107181  0.25845594  0.72378006    -0.78700
O476        O  0.22073141  0.27264850  0.82428242    -0.78600
O477        O  0.27645284  0.30010916  0.70784439    -0.78700
Co478      Co  0.20847438  0.23645057  0.75505876     1.51500
Co479      Co  0.29568664  0.23673369  0.75118105     1.51700
Co480      Co  0.24585526  0.26571493  0.70127339     1.51600
Co481      Co  0.24023256  0.25758591  0.78884977     1.51500
O482        O  0.25137665  0.24947107  0.74520204    -1.40600
C483        C  0.19959135  0.28433737  0.80764907     1.11000
C484        C  0.30452879  0.29368165  0.70937064     1.11100
C485        C  0.18735984  0.28523248  0.71164376     1.11000
C486        C  0.29201946  0.29550196  0.79058395     1.11000
C487        C  0.34617116  0.33275436  0.85218161     0.88000
C488        C  0.37012404  0.35431841  0.83700665    -0.52300
C489        C  0.38709644  0.37188638  0.85727371     0.10900
C490        C  0.37860423  0.36617004  0.89044495     0.21900
C491        C  0.36413919  0.31280444  0.87591481    -0.53000
C492        C  0.38126600  0.33009687  0.89564077     0.11000
C493        C  0.32725059  0.35544523  0.87136288    -0.52500
C494        C  0.34438828  0.37343755  0.89120964     0.11600
H495        H  0.37337434  0.35508571  0.81268285     0.16100
H496        H  0.39268739  0.37980494  0.90694946     0.01800
H497        H  0.36377967  0.28696282  0.87682611     0.16400
H498        H  0.30276386  0.35725934  0.86926287     0.16200
C499        C  0.35075992  0.15949331  0.84311227     0.88000
C500        C  0.33852106  0.13908915  0.86964175    -0.52300
C501        C  0.36096541  0.12596106  0.88770463     0.10900
C502        C  0.39300501  0.13416244  0.87761165     0.21900
C503        C  0.37245712  0.18403838  0.85794361    -0.53000
C504        C  0.39447330  0.17068049  0.87633308     0.11000
C505        C  0.37184260  0.13702474  0.82630731    -0.52500
C506        C  0.39377709  0.12344031  0.84446368     0.11600
H507        H  0.31456133  0.13553216  0.87370261     0.16100
H508        H  0.41101601  0.12336676  0.89227219     0.01800
H509        H  0.37038660  0.20955658  0.85441619     0.16400
H510        H  0.36924299  0.13174394  0.80233246     0.16200
C511        C  0.14890885  0.33558650  0.85983294     0.88000
C512        C  0.16297375  0.36183780  0.87986177    -0.52300
C513        C  0.14209278  0.38161324  0.89197068     0.10900
C514        C  0.10930410  0.37330978  0.88288866     0.21900
C515        C  0.12592420  0.31846399  0.88039685    -0.53000
C516        C  0.10508692  0.33836112  0.89237936     0.11000
C517        C  0.12890643  0.35373495  0.83584778    -0.52500
C518        C  0.10847085  0.37365275  0.84805953     0.11600
H519        H  0.18722189  0.36433276  0.88381917     0.16100
H520        H  0.09236314  0.38905155  0.89307128     0.01800
H521        H  0.12612919  0.29297871  0.88468313     0.16400
H522        H  0.13029999  0.35185310  0.81147681     0.16200
C523        C  0.13290317  0.16139514  0.84898850     0.88000
C524        C  0.10812407  0.13827234  0.83780768    -0.52300
C525        C  0.09218695  0.12429441  0.86059271     0.10900
C526        C  0.10182818  0.13517375  0.89246082     0.21900
C527        C  0.11588071  0.18521300  0.86845621    -0.53000
C528        C  0.09972904  0.17159357  0.89126497     0.11000
C529        C  0.15238594  0.14107029  0.87211224    -0.52500
C530        C  0.13558876  0.12732918  0.89488817     0.11600
H531        H  0.10409317  0.13279572  0.81403299     0.16100
H532        H  0.08818511  0.12405852  0.91067514     0.01800
H533        H  0.11578304  0.21067743  0.86385517     0.16400
H534        H  0.17658074  0.13744023  0.87059285     0.16200
N535        N  0.99948915  0.44755202  0.81227228    -0.35100
N536        N  0.45848811  0.99708449  0.83482644    -0.55700
N537        N  0.99060835  0.03758967  0.85841994    -0.35100
N538        N  0.03956817  0.99134794  0.86170960    -0.55700
C539        C  0.47497338  0.41835347  0.82377652     0.28500
C540        C  0.02400833  0.43037588  0.82162316     0.28500
C541        C  0.48036949  0.06381674  0.83733074     0.28500
C542        C  0.01330124  0.05546383  0.87029101     0.28500
C543        C  0.43582890  0.45994299  0.81403975     0.37100
C544        C  0.44086629  0.02175342  0.84237253     0.37100
C545        C  0.06268765  0.47368021  0.81853264     0.37100
C546        C  0.05618292  0.01843977  0.86316307     0.37100
C547        C  0.48370641  0.38920598  0.83625791    -0.20400
C548        C  0.01481580  0.39981014  0.82956052    -0.20400
C549        C  0.48953908  0.09482181  0.83115295    -0.20400
C550        C  0.00149214  0.08202606  0.88385853    -0.20400
C551        C  0.40623402  0.46980481  0.80871056    -0.21500
C552        C  0.41199920  0.01099341  0.84916095    -0.21500
C553        C  0.09240425  0.48416601  0.81640160    -0.21500
C554        C  0.08680782  0.01167439  0.86175085    -0.21500
C555        C  0.44455519  0.42783741  0.81832805    -0.16800
C556        C  0.05429259  0.44173682  0.82403533    -0.16800
C557        C  0.04444601  0.04889044  0.86846878    -0.16800
C558        C  0.45013494  0.05397013  0.84213978    -0.16800
H559        H  0.46926428  0.36970251  0.84336211     0.16100
H560        H  0.02863681  0.38033523  0.83805849     0.16100
H561        H  0.47538137  0.11540246  0.82706124     0.16100
H562        H  0.01388552  0.10082449  0.89527905     0.16100
H563        H  0.38646871  0.45502212  0.80441956     0.14400
H564        H  0.39281096  0.02500314  0.85565099     0.14400
H565        H  0.11263189  0.46977986  0.81604030     0.14400
H566        H  0.10568351  0.02821682  0.86300915     0.14400
H567        H  0.99956803  0.47043734  0.80305252     0.27600
H568        H  0.99326498  0.01836367  0.84424848     0.27600
C569        C  0.34525083  0.35172531  0.65328625     0.88000
C570        C  0.33156623  0.37291994  0.62754215    -0.52300
C571        C  0.35289704  0.38809816  0.61042843     0.10900
C572        C  0.38543058  0.38063630  0.62037366     0.21900
C573        C  0.36669172  0.32895604  0.63687737    -0.53000
C574        C  0.38784220  0.34444852  0.61975317     0.11000
C575        C  0.36640816  0.37447228  0.67146696    -0.52500
C576        C  0.38720986  0.38989937  0.65374574     0.11600
H577        H  0.30736909  0.37574045  0.62362010     0.16100
H578        H  0.40261912  0.39287037  0.60618836     0.01800
H579        H  0.36537412  0.30321746  0.63883861     0.16400
H580        H  0.36401998  0.37897377  0.69546484     0.16200
C581        C  0.14919030  0.34354250  0.65305521     0.88000
C582        C  0.12889659  0.36379891  0.67280811    -0.52300
C583        C  0.10821965  0.38154658  0.65673832     0.10900
C584        C  0.10926171  0.37680482  0.62220797     0.21900
C585        C  0.12729501  0.32321328  0.63355369    -0.53000
C586        C  0.10633550  0.34081993  0.61738243     0.11000
C587        C  0.16317155  0.36755224  0.63015491    -0.52500
C588        C  0.14196216  0.38503650  0.61399852     0.11600
H589        H  0.13133512  0.36472954  0.69737845     0.16100
H590        H  0.09215523  0.39042736  0.60860813     0.01800
H591        H  0.12836208  0.29746628  0.63259623     0.16400
H592        H  0.18739650  0.37097967  0.62771142     0.16200
N593        N  0.06112811  0.30021540  0.49398815    -0.35100
N594        N  0.01254778  0.29404567  0.53787804    -0.55700
N595        N  0.44043596  0.30212591  0.50177411    -0.35100
N596        N  0.00004921  0.30122973  0.96059338    -0.55700
C597        C  0.07674295  0.30612933  0.52020705     0.28500
C598        C  0.06448473  0.29903266  0.98238847     0.28500
C599        C  0.42325743  0.30927079  0.52587881     0.28500
C600        C  0.43894755  0.30918698  0.98008128     0.28500
C601        C  0.03695272  0.28942762  0.55659462     0.37100
C602        C  0.45885730  0.29095851  0.56708663     0.37100
C603        C  0.02370253  0.29675210  0.94218810     0.37100
C604        C  0.47708296  0.29855003  0.94054962     0.37100
C605        C  0.10443122  0.32009377  0.51346230    -0.20400
C606        C  0.09349641  0.30819948  0.99156533    -0.20400
C607        C  0.39817199  0.32646931  0.51578599    -0.20400
C608        C  0.41331399  0.32444503  0.99000277    -0.20400
C609        C  0.02780762  0.27775676  0.58453634    -0.21500
C610        C  0.46598527  0.28080122  0.59648194    -0.21500
C611        C  0.01367162  0.29701228  0.91214125    -0.21500
C612        C  0.48499958  0.29369087  0.91073276    -0.21500
C613        C  0.06692541  0.29906722  0.55004049    -0.16800
C614        C  0.05463212  0.29703943  0.95164238    -0.16800
C615        C  0.44854449  0.30960833  0.94955693    -0.16800
C616        C  0.42989512  0.30148441  0.55684030    -0.16800
H617        H  0.12198172  0.32787224  0.52929640     0.16100
H618        H  0.11250986  0.31388085  0.97734015     0.16100
H619        H  0.38032831  0.33597685  0.52932342     0.16100
H620        H  0.39769682  0.33907573  0.97674953     0.16100
H621        H  0.04200854  0.27220699  0.60426606     0.14400
H622        H  0.45059182  0.27696559  0.61495738     0.14400
H623        H  0.02717802  0.29489669  0.89211008     0.14400
H624        H  0.47053491  0.29574165  0.89060704     0.14400
H625        H  0.04086250  0.28759751  0.49186400     0.27600
H626        H  0.45920508  0.28733469  0.50209184     0.27600
C627        C  0.15210793  0.16593731  0.63983254     0.88000
C628        C  0.17181079  0.14290738  0.62224278    -0.52300
C629        C  0.15575723  0.12330485  0.60328660     0.10900
C630        C  0.12129605  0.12907908  0.60324968     0.21900
C631        C  0.13327002  0.18385992  0.61489773    -0.53000
C632        C  0.11720798  0.16440877  0.59577750     0.11000
C633        C  0.12853766  0.14431058  0.65604083    -0.52500
C634        C  0.11215973  0.12522776  0.63643506     0.11600
H635        H  0.19636128  0.14228070  0.62452202     0.16100
H636        H  0.10763101  0.11400570  0.58764694     0.01800
H637        H  0.13291804  0.20958996  0.61252276     0.16400
H638        H  0.12430924  0.14517918  0.68017326     0.16200
N639        N  0.99975125  0.45837355  0.67723884    -0.35100
N640        N  0.44757770  0.00049228  0.69003421    -0.55700
N641        N  0.00395022  0.05119153  0.67197711    -0.35100
N642        N  0.04976996  0.00240412  0.66609726    -0.55700
C643        C  0.47118024  0.43948982  0.68623119     0.28500
C644        C  0.02516084  0.44057450  0.67848717     0.28500
C645        C  0.47008624  0.06894348  0.68833258     0.28500
C646        C  0.02938084  0.06914523  0.67604207     0.28500
C647        C  0.43341610  0.47989541  0.70116724     0.37100
C648        C  0.42955410  0.02630208  0.69070327     0.37100
C649        C  0.06345543  0.48369007  0.67094718     0.37100
C650        C  0.06720732  0.02860851  0.66152248     0.37100
C651        C  0.47808142  0.41117047  0.67228436    -0.20400
C652        C  0.01751108  0.40920598  0.68517562    -0.20400
C653        C  0.47899714  0.10032081  0.68335683    -0.20400
C654        C  0.02128755  0.09912665  0.68548612    -0.20400
C655        C  0.40439918  0.48937309  0.70800151    -0.21500
C656        C  0.39937068  0.01678295  0.69109620    -0.21500
C657        C  0.09226672  0.49454591  0.66419454    -0.21500
C658        C  0.09394818  0.02025447  0.64798321    -0.21500
C659        C  0.44153832  0.44828229  0.69464127    -0.16800
C660        C  0.05429520  0.45141620  0.67026395    -0.16800
C661        C  0.05938295  0.06006026  0.66914940    -0.16800
C662        C  0.43939664  0.05839737  0.68850462    -0.16800
H663        H  0.46297388  0.39178464  0.66634979     0.16100
H664        H  0.03222649  0.38883006  0.68698346     0.16100
H665        H  0.46459528  0.12076536  0.67938432     0.16100
H666        H  0.03622911  0.11906432  0.69014270     0.16100
H667        H  0.38478283  0.47433588  0.71170537     0.14400
H668        H  0.37952631  0.03177210  0.69082059     0.14400
H669        H  0.11138129  0.48068978  0.65721040     0.14400
H670        H  0.11240624  0.03585866  0.64159501     0.14400
H671        H  0.99827269  0.48122385  0.66816108     0.27600
H672        H  0.00258877  0.02917211  0.66184096     0.27600
N673        N  0.18357954  0.45383431  0.49861951    -0.35100
N674        N  0.18057143  0.00175867  0.95577555    -0.55700
N675        N  0.17744970  0.04799141  0.49426622    -0.35100
N676        N  0.17855492  0.99714522  0.54016122    -0.55700
C677        C  0.18354362  0.43505690  0.97710872     0.28500
C678        C  0.17585776  0.43369735  0.52157591     0.28500
C679        C  0.17270200  0.06811090  0.97406841     0.28500
C680        C  0.17729581  0.06537766  0.51981942     0.28500
C681        C  0.17552484  0.47463540  0.93411949     0.37100
C682        C  0.17406330  0.02580028  0.93573954     0.37100
C683        C  0.17733098  0.47239880  0.56363540     0.37100
C684        C  0.16861919  0.02113785  0.55730559     0.37100
C685        C  0.19247124  0.40532721  0.98804896    -0.20400
C686        C  0.16742063  0.40449946  0.50979525    -0.20400
C687        C  0.17826029  0.09895526  0.98344339    -0.20400
C688        C  0.18268906  0.09708031  0.51229205    -0.20400
C689        C  0.17039621  0.48255182  0.90369192    -0.21500
C690        C  0.16955619  0.01378626  0.90688879    -0.21500
C691        C  0.18045588  0.48056157  0.59390863    -0.21500
C692        C  0.15918818  0.00924476  0.58508872    -0.21500
C693        C  0.17883663  0.44307367  0.94587089    -0.16800
C694        C  0.17641226  0.44086753  0.55288559    -0.16800
C695        C  0.16884864  0.05378323  0.54886129    -0.16800
C696        C  0.17192683  0.05836411  0.94335132    -0.16800
H697        H  0.19868403  0.38498039  0.97491289     0.16100
H698        H  0.15995118  0.38355629  0.52221460     0.16100
H699        H  0.18460048  0.11926550  0.96951933     0.16100
H700        H  0.18308687  0.11727300  0.52712259     0.16100
H701        H  0.16774517  0.46654842  0.88483211     0.14400
H702        H  0.16380009  0.02682072  0.88618661     0.14400
H703        H  0.18462750  0.46480121  0.61321296     0.14400
H704        H  0.15064425  0.02245827  0.60385861     0.14400
H705        H  0.19338266  0.47623130  0.50098401     0.27600
H706        H  0.16973859  0.02479682  0.49251754     0.27600
N707        N  0.00212381  0.20978505  0.53677016    -0.35100
N708        N  0.45207270  0.18886795  0.49615656    -0.55700
N709        N  0.99086251  0.19978332  0.95706823    -0.35100
N710        N  0.04810833  0.21628143  0.49046377    -0.55700
C711        C  0.47124243  0.17509315  0.56069998     0.28500
C712        C  0.02736939  0.20152279  0.55309322     0.28500
C713        C  0.48420438  0.19288690  0.92710154     0.28500
C714        C  0.01631725  0.18915272  0.94404060     0.28500
C715        C  0.43330087  0.18992452  0.51992241     0.37100
C716        C  0.44696462  0.20082383  0.96851198     0.37100
C717        C  0.06651015  0.21697838  0.51548462     0.37100
C718        C  0.05260025  0.20291551  0.98572040     0.37100
C719        C  0.47890149  0.15908950  0.58756053    -0.20400
C720        C  0.01908140  0.18508618  0.57919488    -0.20400
C721        C  0.49181416  0.18112460  0.89904798    -0.20400
C722        C  0.00853624  0.17434745  0.91698753    -0.20400
C723        C  0.40404878  0.19674988  0.50971301    -0.21500
C724        C  0.41758208  0.20341024  0.97869876    -0.21500
C725        C  0.09604954  0.22337558  0.50719150    -0.21500
C726        C  0.08075882  0.21297459  0.99639257    -0.21500
C727        C  0.44100650  0.18034415  0.55003006    -0.16800
C728        C  0.05774807  0.20822134  0.54521053    -0.16800
C729        C  0.04630341  0.19281168  0.95584376    -0.16800
C730        C  0.45419046  0.19342268  0.93827814    -0.16800
H731        H  0.46374617  0.14913774  0.60422700     0.16100
H732        H  0.03391217  0.17523618  0.59683056     0.16100
H733        H  0.47671977  0.17144710  0.88177891     0.16100
H734        H  0.02343712  0.16294212  0.90143913     0.16100
H735        H  0.38393725  0.19838266  0.52316455     0.14400
H736        H  0.39679397  0.20327269  0.96514203     0.14400
H737        H  0.11597115  0.22471442  0.52194252     0.14400
H738        H  0.10095674  0.21689792  0.98335014     0.14400
H739        H  0.00146307  0.22462901  0.51768333     0.27600
H740        H  0.98973837  0.21369235  0.97633682     0.27600
C741        C  0.34722209  0.15807677  0.65393945     0.88000
C742        C  0.36852918  0.13304700  0.66832280    -0.52300
C743        C  0.38545931  0.11751966  0.64776005     0.10900
C744        C  0.37915469  0.12829470  0.61479216     0.21900
C745        C  0.36824423  0.18017093  0.63548064    -0.53000
C746        C  0.38495998  0.16448845  0.61473996     0.11000
C747        C  0.32801344  0.14012154  0.63021832    -0.52500
C748        C  0.34469082  0.12437124  0.60982898     0.11600
H749        H  0.37021558  0.12872490  0.69262768     0.16100
H750        H  0.39287484  0.11524893  0.59839158     0.01800
H751        H  0.37004282  0.20563905  0.63884452     0.16400
H752        H  0.30339819  0.13936019  0.62998708     0.16200
N753        N  0.31632975  0.04917510  0.50074402    -0.35100
N754        N  0.32233556  0.50505756  0.54284353    -0.55700
N755        N  0.32287174  0.45621977  0.49674908    -0.35100
N756        N  0.33117938  0.50093894  0.95541959    -0.55700
C757        C  0.32765212  0.06623156  0.52429794     0.28500
C758        C  0.33698318  0.06981017  0.97241387     0.28500
C759        C  0.32398836  0.43753034  0.52203517     0.28500
C760        C  0.34599343  0.43486232  0.97695491     0.28500
C761        C  0.32307185  0.02449977  0.56463314     0.37100
C762        C  0.31791253  0.47949081  0.56125475     0.37100
C763        C  0.34042180  0.02718355  0.93351411     0.37100
C764        C  0.32841339  0.47481756  0.93795392     0.37100
C765        C  0.33728863  0.09580961  0.51376068    -0.20400
C766        C  0.32971966  0.10044208  0.98085027    -0.20400
C767        C  0.33252666  0.40705504  0.51424165    -0.20400
C768        C  0.35925113  0.40611299  0.98529481    -0.20400
C769        C  0.31914703  0.01516290  0.59460298    -0.21500
C770        C  0.31733990  0.48908414  0.59122558    -0.21500
C771        C  0.34204783  0.01707298  0.90381144    -0.21500
C772        C  0.31817260  0.48339943  0.90903137    -0.21500
C773        C  0.32945191  0.05586958  0.55502105    -0.16800
C774        C  0.33629191  0.05920067  0.94199932    -0.16800
C775        C  0.33834754  0.44396579  0.94654079    -0.16800
C776        C  0.31877979  0.44733004  0.55216050    -0.16800
H777        H  0.34772222  0.11474583  0.52673492     0.16100
H778        H  0.32111962  0.11955596  0.96638502     0.16100
H779        H  0.33523299  0.38640872  0.52902037     0.16100
H780        H  0.36514094  0.38689172  0.97058971     0.16100
H781        H  0.31784681  0.03030856  0.61414337     0.14400
H782        H  0.31526787  0.47417796  0.61135396     0.14400
H783        H  0.34000444  0.03133547  0.88319348     0.14400
H784        H  0.31446813  0.46798594  0.88985325     0.14400
H785        H  0.30563361  0.02707035  0.50198638     0.27600
H786        H  0.31462871  0.47915865  0.49550138     0.27600
C787        C  0.33045563  0.10452413  0.58602100    -0.14900
C788        C  0.34317838  0.07720602  0.57810377    -0.30100
H789        H  0.30863791  0.11140694  0.57611049     0.14100
H790        H  0.36338541  0.06883429  0.59026513     0.14700
C791        C  0.41557663  0.16832824  0.56879794    -0.14900
C792        C  0.40830649  0.18027634  0.59574769    -0.30100
H793        H  0.40202581  0.14910639  0.55928623     0.14100
H794        H  0.42000166  0.20129604  0.60414949     0.14700
C795        C  0.41554282  0.08269042  0.68357996    -0.14900
C796        C  0.40900857  0.09354576  0.65534716    -0.30100
H797        H  0.40292981  0.09010095  0.70299266     0.14100
H798        H  0.42186447  0.08448863  0.63666007     0.14700
C799        C  0.08186512  0.20248823  0.56896711    -0.14900
C800        C  0.09694085  0.17481973  0.57004494    -0.30100
H801        H  0.08436895  0.21926151  0.58732085     0.14100
H802        H  0.09188430  0.15750086  0.55257322     0.14700
C803        C  0.15522993  0.07627675  0.57021105    -0.14900
C804        C  0.17075964  0.09987560  0.58380637    -0.30100
H805        H  0.13174686  0.07179357  0.57557095     0.14100
H806        H  0.19496812  0.10221264  0.58030900     0.14700
C807        C  0.08545973  0.10481329  0.64379704    -0.14900
C808        C  0.08383380  0.08499532  0.66794674    -0.30100
H809        H  0.06785987  0.10298201  0.62620529     0.14100
H810        H  0.10256358  0.08382887  0.68436285     0.14700
C811        C  0.08302745  0.32788124  0.59600530    -0.14900
C812        C  0.08869072  0.30504864  0.57591114    -0.30100
H813        H  0.06181777  0.34077051  0.59377040     0.14100
H814        H  0.11103063  0.29439368  0.57562500     0.14700
C815        C  0.14827976  0.41150851  0.59219298    -0.14900
C816        C  0.17319930  0.41405237  0.57534088    -0.30100
H817        H  0.13059995  0.42916520  0.58880471     0.14100
H818        H  0.19004239  0.39535276  0.57612842     0.14700
C819        C  0.07517015  0.42861910  0.65640241    -0.14900
C820        C  0.08804628  0.40420450  0.67171185    -0.30100
H821        H  0.08109990  0.43367117  0.63306931     0.14100
H822        H  0.08437417  0.40134583  0.69590844     0.14700
C823        C  0.40628367  0.30848798  0.57975860    -0.14900
C824        C  0.41193737  0.32943995  0.60200754    -0.30100
H825        H  0.38313792  0.30048129  0.57547203     0.14100
H826        H  0.43431214  0.34031734  0.60363169     0.14700
C827        C  0.34728642  0.41102991  0.58520026    -0.14900
C828        C  0.32017843  0.42268271  0.57665505    -0.30100
H829        H  0.36711071  0.41965511  0.57330320     0.14100
H830        H  0.29973360  0.41628103  0.58854559     0.14700
C831        C  0.41670441  0.42419186  0.69083531    -0.14900
C832        C  0.40813455  0.41609834  0.66256915    -0.30100
H833        H  0.40687997  0.41281155  0.71061163     0.14100
H834        H  0.41894558  0.42862795  0.64388674     0.14700
C835        C  0.06921944  0.09935841  0.85508664    -0.14900
C836        C  0.06617921  0.07490526  0.87470620    -0.30100
H837        H  0.05600699  0.09989046  0.83394026     0.14100
H838        H  0.08131146  0.07243448  0.89440894     0.14700
C839        C  0.14631659  0.10581081  0.92016282    -0.14900
C840        C  0.16749247  0.08297510  0.91823132    -0.30100
H841        H  0.13275512  0.10603565  0.94040434     0.14100
H842        H  0.17906564  0.08020720  0.89698438     0.14700
C843        C  0.07208460  0.18010176  0.93851605    -0.14900
C844        C  0.07871394  0.18981395  0.91019547    -0.30100
H845        H  0.08535700  0.16127729  0.94941267     0.14100
H846        H  0.06718554  0.21030040  0.90011325     0.14700
C847        C  0.07816242  0.30124020  0.92812930    -0.14900
C848        C  0.08002747  0.32896211  0.91263011    -0.30100
H849        H  0.09594141  0.28366173  0.92687671     0.14100
H850        H  0.06302608  0.34691657  0.91653367     0.14700
C851        C  0.08717589  0.39348770  0.82937864    -0.14900
C852        C  0.07767064  0.42149954  0.83958278    -0.30100
H853        H  0.07923050  0.38511877  0.80737494     0.14100
H854        H  0.08799490  0.43103165  0.86016023     0.14700
C855        C  0.14866267  0.40906173  0.91192807    -0.14900
C856        C  0.17592867  0.41623925  0.92432910    -0.30100
H857        H  0.12952540  0.42385693  0.91741977     0.14100
H858        H  0.19541409  0.40129175  0.92086730     0.14700
C859        C  0.33423985  0.08371963  0.91721815    -0.14900
C860        C  0.35668230  0.10521044  0.91464676    -0.30100
H861        H  0.31721220  0.08129121  0.89917763     0.14100
H862        H  0.37508059  0.10487046  0.93151788     0.14700
C863        C  0.42808648  0.07789473  0.85199166    -0.19600
C864        C  0.41549732  0.09983061  0.83321940    -0.30100
H865        H  0.42091451  0.07568475  0.87531047     0.14100
H866        H  0.42062715  0.09987935  0.80922306     0.14700
C867        C  0.41785668  0.18931475  0.89349901    -0.14900
C868        C  0.42938395  0.17803985  0.92009102    -0.30100
H869        H  0.42554026  0.21208937  0.88446947     0.14100
H870        H  0.41941732  0.15687347  0.93032055     0.14700
C871        C  0.33136046  0.39713205  0.91215852    -0.14900
C872        C  0.34770358  0.42239735  0.92185403    -0.30100
H873        H  0.30850338  0.39345820  0.92016323     0.14100
H874        H  0.36980233  0.42720955  0.91246171     0.14700
C875        C  0.40066750  0.31467108  0.91938727    -0.14900
C876        C  0.42880749  0.32519110  0.92583694    -0.30100
H877        H  0.39235332  0.29323637  0.93063043     0.14100
H878        H  0.43827414  0.34471242  0.91255082     0.14700
C879        C  0.41195054  0.39453079  0.85000045    -0.14900
C880        C  0.42004824  0.40363813  0.82197084    -0.30100
H881        H  0.42417849  0.40482584  0.86921522     0.14100
H882        H  0.40789329  0.39523295  0.80195097     0.14700
C883        C  0.32882691  0.31090690  0.83045571    -0.14900
C884        C  0.30824244  0.32001053  0.80898576    -0.30100
H885        H  0.33318239  0.28555197  0.83291435     0.14100
H886        H  0.30144375  0.34472988  0.80705768     0.14700
C887        C  0.30592740  0.19510625  0.83126407    -0.14900
C888        C  0.32650688  0.17391358  0.82221209    -0.30100
H889        H  0.30580728  0.20207758  0.85488340     0.14100
H890        H  0.32680080  0.16771259  0.79837427     0.14700
C891        C  0.17289663  0.31296816  0.84834242    -0.14900
C892        C  0.17784163  0.30770006  0.81880390    -0.30100
H893        H  0.18637548  0.30006784  0.86538724     0.14100
H894        H  0.16453647  0.31959539  0.80122962     0.14700
C895        C  0.32091391  0.33501532  0.67186564    -0.14900
C896        C  0.32755672  0.31468042  0.69496006    -0.30100
H897        H  0.29729941  0.33841569  0.66510474     0.14100
H898        H  0.35123610  0.31049837  0.70097892     0.14700
C899        C  0.17774820  0.18268270  0.81852515    -0.14900
C900        C  0.14777773  0.17871426  0.82235430    -0.30100
H901        H  0.19373753  0.17189914  0.83459133     0.14100
H902        H  0.13236043  0.19107381  0.80664169     0.14700
C903        C  0.17227826  0.32472572  0.67190384    -0.14900
C904        C  0.16429303  0.30322468  0.69352579    -0.30100
H905        H  0.19615030  0.32926789  0.66799021     0.14100
H906        H  0.14049506  0.29778189  0.69684366     0.14700
C907        C  0.30668757  0.19502547  0.66918828    -0.14900
C908        C  0.32853115  0.17436199  0.67723228    -0.30100
H909        H  0.30270601  0.20086609  0.64529892     0.14100
H910        H  0.33290748  0.16897045  0.70115053     0.14700
C911        C  0.19014736  0.18021723  0.68248646    -0.14900
C912        C  0.17066798  0.18895625  0.65967266    -0.30100
H913        H  0.19168821  0.15530354  0.68918019     0.14100
H914        H  0.16852350  0.21420417  0.65443395     0.14700
O915        O  0.21458948  0.70569017  0.21438859    -0.78600
O916        O  0.28725721  0.70296638  0.26495939    -0.78700
O917        O  0.28068255  0.71995495  0.19745107    -0.78700
O918        O  0.22118758  0.73277066  0.31385368    -0.78600
O919        O  0.32547921  0.72500772  0.22052350    -0.78700
O920        O  0.21134898  0.70141284  0.27540802    -0.78700
O921        O  0.28376938  0.73044161  0.30698838    -0.78600
O922        O  0.22442027  0.74147072  0.18027099    -0.78700
C923        C  0.21189830  0.71535209  0.18738387     1.11000
C924        C  0.29239855  0.70567800  0.29324255     1.10900
C925        C  0.30929926  0.71334606  0.19916614     1.11100
C926        C  0.21020709  0.70697775  0.30338840     1.10900
O927        O  0.18427017  0.76371220  0.27653156    -0.78600
O928        O  0.30178531  0.78304629  0.21273009    -0.78700
O929        O  0.23217916  0.80067342  0.20984047    -0.78700
O930        O  0.28258097  0.79626107  0.28484146    -0.78600
O931        O  0.31726327  0.76315802  0.27104795    -0.78700
O932        O  0.19060247  0.77133469  0.21523048    -0.78700
O933        O  0.22030142  0.79709192  0.29110750    -0.78600
O934        O  0.27473355  0.77771983  0.17056639    -0.78700
Co935      Co  0.20335390  0.73601153  0.24548832     1.51500
Co936      Co  0.29063243  0.74201464  0.23921675     1.51700
Co937      Co  0.25699611  0.76180325  0.20681955     1.51600
Co938      Co  0.25192686  0.76391282  0.29588592     1.51500
O939        O  0.24704374  0.75181386  0.25071219    -1.40600
C940        C  0.19253514  0.78917013  0.28949727     1.11000
C941        C  0.29835110  0.78843100  0.18370186     1.11100
C942        C  0.20361926  0.79731839  0.20682067     1.11000
C943        C  0.31002139  0.78799033  0.28503396     1.11000
C944        C  0.34533417  0.84141640  0.34819687     0.88000
C945        C  0.36902932  0.86389954  0.33409675    -0.52300
C946        C  0.38725388  0.87885409  0.35516247     0.10900
C947        C  0.38009593  0.86972258  0.38819557     0.21900
C948        C  0.36356084  0.81830617  0.36892709    -0.53000
C949        C  0.38205848  0.83302644  0.38980576     0.11000
C950        C  0.32810713  0.86216119  0.37034023    -0.52500
C951        C  0.34617974  0.87722169  0.39109634     0.11600
H952        H  0.37077407  0.86759776  0.30978155     0.16100
H953        H  0.39466377  0.88185946  0.40537597     0.01800
H954        H  0.36190617  0.79261388  0.36726950     0.16400
H955        H  0.30364754  0.86498461  0.36953151     0.16200
C956        C  0.35274609  0.66664441  0.34889961     0.88000
C957        C  0.33695130  0.63986372  0.36713494    -0.52300
C958        C  0.35682888  0.62040060  0.38278196     0.10900
C959        C  0.39005696  0.62951664  0.37908075     0.21900
C960        C  0.37292250  0.68389271  0.37263683    -0.53000
C961        C  0.39247072  0.66434488  0.38842613     0.11000
C962        C  0.37554645  0.64930559  0.32870375    -0.52500
C963        C  0.39476415  0.62930928  0.34475326     0.11600
H964        H  0.31255223  0.63646025  0.36719386     0.16100
H965        H  0.40594406  0.61393706  0.39232512     0.01800
H966        H  0.37168920  0.70926243  0.37639665     0.16400
H967        H  0.37574940  0.65184100  0.30415095     0.16200
C968        C  0.15098235  0.84477532  0.34506839     0.88000
C969        C  0.16497499  0.86615511  0.36975198    -0.52300
C970        C  0.14418199  0.88263558  0.38549664     0.10900
C971        C  0.11133049  0.87610229  0.37527058     0.21900
C972        C  0.12800613  0.82324677  0.36218845    -0.53000
C973        C  0.10709540  0.84005427  0.37794601     0.11000
C974        C  0.13135982  0.86748154  0.32513732    -0.52500
C975        C  0.11027191  0.88345515  0.34102133     0.11600
H976        H  0.18918640  0.86781422  0.37444901     0.16100
H977        H  0.09477847  0.88979353  0.38834342     0.01800
H978        H  0.12813780  0.79747097  0.36146944     0.16400
H979        H  0.13383567  0.87050678  0.30079385     0.16200
C980        C  0.14981739  0.66997416  0.35667555     0.88000
C981        C  0.13029580  0.65283998  0.33232675    -0.52300
C982        C  0.10977335  0.63171866  0.34385068     0.10900
C983        C  0.10997484  0.63041656  0.37877093     0.21900
C984        C  0.12649778  0.68574287  0.37719244    -0.53000
C985        C  0.10552128  0.66490206  0.38879746     0.11000
C986        C  0.16377962  0.64317573  0.37672980    -0.52500
C987        C  0.14273357  0.62248968  0.38844889     0.11600
H988        H  0.13279474  0.65681667  0.30808996     0.16100
H989        H  0.09294450  0.61371618  0.38835356     0.01800
H990        H  0.12660466  0.71099894  0.38182856     0.16400
H991        H  0.18797224  0.64111801  0.38117747     0.16200
N992        N  0.98735315  0.94989596  0.32366446    -0.35100
N993        N  0.45609854  0.49914912  0.33484913    -0.55700
N994        N  0.00090047  0.55660467  0.30951473    -0.35100
N995        N  0.04777916  0.50877262  0.29998950    -0.55700
C996        C  0.47211245  0.93118966  0.32428410     0.28500
C997        C  0.01173682  0.93123784  0.31985138     0.28500
C998        C  0.47737851  0.56514341  0.34172905     0.28500
C999        C  0.02587277  0.57262863  0.31977487     0.28500
C1000       C  0.43150723  0.97100693  0.31227750     0.37100
C1001       C  0.43807322  0.52468518  0.32969443     0.37100
C1002       C  0.05161956  0.96791997  0.34013048     0.37100
C1003       C  0.06584877  0.53454425  0.30423988     0.37100
C1004       C  0.48159486  0.90104344  0.33342576    -0.20400
C1005       C  0.00251567  0.90301762  0.30654312    -0.20400
C1006       C  0.48630992  0.59198275  0.35750122    -0.20400
C1007       C  0.01685458  0.59893160  0.33575203    -0.20400
C1008       C  0.40208068  0.97911476  0.30371380    -0.21500
C1009       C  0.40845344  0.51485560  0.32401051    -0.21500
C1010       C  0.07836843  0.97416070  0.35624880    -0.21500
C1011       C  0.09570857  0.52678843  0.29904419    -0.21500
C1012       C  0.44150985  0.93947430  0.31762907    -0.16800
C1013       C  0.04136862  0.93742884  0.33126771    -0.16800
C1014       C  0.05664249  0.56369473  0.31658976    -0.16800
C1015       C  0.44679239  0.55645255  0.33545163    -0.16800
H1016       H  0.46788275  0.87982593  0.33627590     0.16100
H1017       H  0.01655038  0.88294086  0.30130442     0.16100
H1018       H  0.47197036  0.61011370  0.36656090     0.16100
H1019       H  0.03109519  0.61628439  0.34715259     0.16100
H1020       H  0.38371818  0.96324049  0.29724900     0.14400
H1021       H  0.38873613  0.52967423  0.32014748     0.14400
H1022       H  0.09504635  0.95731281  0.36479088     0.14400
H1023       H  0.11547458  0.54201396  0.30141873     0.14400
H1024       H  0.98695524  0.96992395  0.33705382     0.27600
H1025       H  0.00048927  0.53708268  0.29541387     0.27600
C1026       C  0.36805770  0.83940205  0.15439336     0.88000
C1027       C  0.35138312  0.86198187  0.13164553    -0.52300
C1028       C  0.37017763  0.87920054  0.11342195     0.10900
C1029       C  0.40381881  0.87210765  0.11925847     0.21900
C1030       C  0.38845656  0.81861823  0.13432446    -0.53000
C1031       C  0.40730482  0.83619041  0.11595779     0.11000
C1032       C  0.39070483  0.86149244  0.17163394    -0.52500
C1033       C  0.40938090  0.87848589  0.15285602     0.11600
H1034       H  0.32692463  0.86463325  0.13049550     0.16100
H1035       H  0.41919697  0.88591437  0.10434629     0.01800
H1036       H  0.38780191  0.79281689  0.13461475     0.16400
H1037       H  0.39197629  0.86325412  0.19618396     0.16200
C1038       C  0.14128999  0.83967709  0.15559837     0.88000
C1039       C  0.12268401  0.85917064  0.17775296    -0.52300
C1040       C  0.10253400  0.87945598  0.16375150     0.10900
C1041       C  0.10251008  0.87798256  0.12891980     0.21900
C1042       C  0.11714821  0.82284877  0.13542817    -0.53000
C1043       C  0.09680455  0.84299405  0.12151433     0.11000
C1044       C  0.15600885  0.86471696  0.13396921    -0.52500
C1045       C  0.13529619  0.88484564  0.11986417     0.11600
H1046       H  0.12500308  0.85681928  0.20228603     0.16100
H1047       H  0.08569862  0.89388085  0.11740432     0.01800
H1048       H  0.11623772  0.79725950  0.13281677     0.16400
H1049       H  0.18016455  0.86591866  0.13007812     0.16200
N1050       N  0.03252086  0.79741983  0.01182794    -0.35100
N1051       N  0.98590148  0.80181776  0.05719540    -0.55700
N1052       N  0.47034429  0.78989505  0.00980383    -0.35100
N1053       N  0.00293375  0.79327115  0.44352336    -0.55700
C1054       C  0.04936895  0.79208410  0.03751746     0.28500
C1055       C  0.06757812  0.79030805  0.46371340     0.28500
C1056       C  0.45331251  0.79417757  0.03466407     0.28500
C1057       C  0.43717034  0.80752807  0.47725262     0.28500
C1058       C  0.01048832  0.80319368  0.07608735     0.37100
C1059       C  0.49357529  0.78502443  0.07486416     0.37100
C1060       C  0.02626706  0.79097600  0.42423728     0.37100
C1061       C  0.47603763  0.79983472  0.43752396     0.37100
C1062       C  0.07768247  0.78105813  0.03000000    -0.20400
C1063       C  0.09645804  0.79935350  0.47334337    -0.20400
C1064       C  0.42496336  0.80523176  0.02533234    -0.20400
C1065       C  0.40976494  0.81917799  0.48688936    -0.20400
C1066       C  0.00152226  0.80773027  0.10560969    -0.21500
C1067       C  0.50352819  0.78040936  0.10469810    -0.21500
C1068       C  0.01551449  0.79224555  0.39444983    -0.21500
C1069       C  0.48417876  0.79658620  0.40755640    -0.21500
C1070       C  0.04090565  0.79936610  0.06736621    -0.16800
C1071       C  0.05737228  0.79132238  0.43298784    -0.16800
C1072       C  0.44690513  0.80912742  0.44670190    -0.16800
C1073       C  0.46277062  0.78951094  0.06562474    -0.16800
H1074       H  0.09639219  0.77492179  0.04525799     0.16100
H1075       H  0.11500855  0.80740633  0.45947399     0.16100
H1076       H  0.40586087  0.81052828  0.03924386     0.16100
H1077       H  0.39210824  0.83052641  0.47321683     0.16100
H1078       H  0.01579437  0.80949533  0.12584168     0.14400
H1079       H  0.48974792  0.77691595  0.12447734     0.14400
H1080       H  0.02858976  0.79153129  0.37401541     0.14400
H1081       H  0.46959878  0.79859121  0.38750934     0.14400
H1082       H  0.01223711  0.80971137  0.01047364     0.27600
H1083       H  0.49153718  0.77939083  0.00956892     0.27600
C1084       C  0.15087049  0.65806419  0.15316306     0.88000
C1085       C  0.17021670  0.63454086  0.13573428    -0.52300
C1086       C  0.15389815  0.61608513  0.11616106     0.10900
C1087       C  0.11964795  0.62196974  0.11651613     0.21900
C1088       C  0.13249787  0.67676130  0.12852323    -0.53000
C1089       C  0.11609527  0.65745409  0.10936520     0.11000
C1090       C  0.12692220  0.63701752  0.16916126    -0.52500
C1091       C  0.11058679  0.61804917  0.14971248     0.11600
H1092       H  0.19472073  0.63311636  0.13820597     0.16100
H1093       H  0.10611797  0.60643200  0.10111373     0.01800
H1094       H  0.13263766  0.70251591  0.12647609     0.16400
H1095       H  0.12377343  0.63663540  0.19352459     0.16200
N1096       N  0.99203372  0.94980134  0.19125014    -0.35100
N1097       N  0.45242206  0.50654241  0.18752575    -0.55700
N1098       N  0.99315827  0.55627824  0.19585037    -0.35100
N1099       N  0.04232028  0.51137160  0.19053702    -0.55700
C1100       C  0.48710995  0.93909243  0.18664050     0.28500
C1101       C  0.01662311  0.93516633  0.18016540     0.28500
C1102       C  0.48036371  0.57091309  0.18118125     0.28500
C1103       C  0.01599695  0.57643335  0.18818016     0.28500
C1104       C  0.44633633  0.97983809  0.18441999     0.37100
C1105       C  0.43672532  0.53291025  0.17942287     0.37100
C1106       C  0.05504684  0.97799162  0.18952108     0.37100
C1107       C  0.05885389  0.53832601  0.19391520     0.37100
C1108       C  0.49773036  0.90872195  0.19331387    -0.20400
C1109       C  0.00757595  0.90689550  0.16677072    -0.20400
C1110       C  0.49267057  0.60042460  0.18812109    -0.20400
C1111       C  0.00391383  0.60528575  0.17852125    -0.20400
C1112       C  0.41656910  0.98922135  0.17940864    -0.21500
C1113       C  0.40678528  0.52494678  0.17259739    -0.21500
C1114       C  0.08457606  0.98865860  0.19411183    -0.21500
C1115       C  0.08930967  0.53097698  0.19783767    -0.21500
C1116       C  0.45609784  0.94780012  0.18629812    -0.16800
C1117       C  0.04698693  0.94659590  0.18161969    -0.16800
C1118       C  0.04744172  0.56948896  0.18945527    -0.16800
C1119       C  0.44896871  0.56407046  0.17852122    -0.16800
H1120       H  0.48478737  0.88841710  0.20129233     0.16100
H1121       H  0.02165317  0.88992220  0.15559926     0.16100
H1122       H  0.48054326  0.62161591  0.19406749     0.16100
H1123       H  0.01611838  0.62629507  0.17103089     0.16100
H1124       H  0.39674627  0.97417760  0.17655056     0.14400
H1125       H  0.38871195  0.54079860  0.16533611     0.14400
H1126       H  0.10502480  0.97457915  0.19466835     0.14400
H1127       H  0.10817220  0.54735025  0.20055670     0.14400
H1128       H  0.99218445  0.97018580  0.20431715     0.27600
H1129       H  0.99565964  0.53417365  0.20641940     0.27600
N1130       N  0.17696730  0.95424259  0.00655293    -0.35100
N1131       N  0.18274195  0.50670941  0.45445896    -0.55700
N1132       N  0.17114567  0.55055972  0.99441407    -0.35100
N1133       N  0.17305330  0.50285684  0.04516695    -0.55700
C1134       C  0.18799213  0.93435559  0.46668643     0.28500
C1135       C  0.18115286  0.93734163  0.03290230     0.28500
C1136       C  0.16877124  0.57064628  0.47787725     0.28500
C1137       C  0.17241792  0.56973183  0.01872738     0.28500
C1138       C  0.18037617  0.97729533  0.42748926     0.37100
C1139       C  0.18662850  0.53402433  0.43831497     0.37100
C1140       C  0.16082530  0.97712568  0.06796124     0.37100
C1141       C  0.16461921  0.52893357  0.06034882     0.37100
C1142       C  0.19663401  0.90378364  0.47515650    -0.20400
C1143       C  0.19497182  0.90875014  0.02671584    -0.20400
C1144       C  0.15385818  0.59789356  0.48643157    -0.20400
C1145       C  0.17797295  0.60076393  0.00898613    -0.20400
C1146       C  0.17317383  0.98797001  0.39827105    -0.21500
C1147       C  0.19636737  0.52734259  0.40945338    -0.21500
C1148       C  0.14741583  0.98673388  0.09439888    -0.21500
C1149       C  0.15485339  0.51996333  0.08897696    -0.21500
C1150       C  0.18266245  0.94494394  0.43640608    -0.16800
C1151       C  0.17005066  0.94564517  0.06170274    -0.16800
C1152       C  0.16568231  0.56078057  0.04903102    -0.16800
C1153       C  0.17791620  0.56443438  0.44796296    -0.16800
H1154       H  0.20177542  0.88439792  0.46032492     0.16100
H1155       H  0.20068752  0.88968475  0.04258502     0.16100
H1156       H  0.14683929  0.61777494  0.47206437     0.16100
H1157       H  0.17972496  0.62174523  0.02282663     0.16100
H1158       H  0.16804623  0.97378224  0.37851012     0.14400
H1159       H  0.20062630  0.54409085  0.39109180     0.14400
H1160       H  0.14153374  0.97230218  0.11396033     0.14400
H1161       H  0.14631931  0.53493962  0.10649564     0.14400
H1162       H  0.16355030  0.97423557  0.00332051     0.27600
H1163       H  0.16361559  0.52720271  0.99487377     0.27600
N1164       N  0.00170480  0.69165608  0.05115037    -0.35100
N1165       N  0.46453261  0.70430416  0.98275644    -0.55700
N1166       N  0.00099578  0.70416247  0.45821614    -0.35100
N1167       N  0.04614393  0.70413796  0.00299373    -0.55700
C1168       C  0.48816852  0.68992881  0.04599976     0.28500
C1169       C  0.02674408  0.69827486  0.06833124     0.28500
C1170       C  0.47169656  0.70936537  0.44004695     0.28500
C1171       C  0.02578338  0.70699467  0.44078810     0.28500
C1172       C  0.44739887  0.70443241  0.00782907     0.37100
C1173       C  0.43050933  0.70933500  0.47848070     0.37100
C1174       C  0.06541574  0.70045849  0.02710535     0.37100
C1175       C  0.06648404  0.69951082  0.48135175     0.37100
C1176       C  0.49775537  0.67367995  0.07212915    -0.20400
C1177       C  0.01876346  0.69889122  0.09863776    -0.20400
C1178       C  0.48157053  0.70490967  0.41074054    -0.20400
C1179       C  0.01645752  0.71281874  0.41092691    -0.20400
C1180       C  0.41739228  0.71019287  0.99963477    -0.21500
C1181       C  0.40021403  0.70882618  0.48617885    -0.21500
C1182       C  0.09487439  0.69769214  0.01708213    -0.21500
C1183       C  0.09583995  0.69176263  0.49046087    -0.21500
C1184       C  0.45723513  0.69423153  0.03720912    -0.16800
C1185       C  0.05708496  0.69958218  0.05808962    -0.16800
C1186       C  0.05651510  0.70262737  0.45049282    -0.16800
C1187       C  0.44074331  0.70934497  0.44822854    -0.16800
H1188       H  0.48379004  0.66292997  0.08941776     0.16100
H1189       H  0.03359983  0.70259865  0.11818801     0.16100
H1190       H  0.46785118  0.70210481  0.39026049     0.16100
H1191       H  0.03064062  0.71609732  0.39140949     0.16100
H1192       H  0.39816585  0.71056519  0.01441437     0.14400
H1193       H  0.38063034  0.71100803  0.47103529     0.14400
H1194       H  0.11547065  0.69506383  0.03067304     0.14400
H1195       H  0.11508355  0.68808477  0.47620002     0.14400
H1196       H  0.00166941  0.68593413  0.02843876     0.27600
H1197       H  0.00096206  0.69727688  0.48074884     0.27600
C1198       C  0.36767217  0.67359920  0.14578884     0.88000
C1199       C  0.39050253  0.65030773  0.16052704    -0.52300
C1200       C  0.40678624  0.63377500  0.14021345     0.10900
C1201       C  0.39890879  0.64196112  0.10698619     0.21900
C1202       C  0.38681319  0.69473940  0.12452105    -0.53000
C1203       C  0.40312896  0.67830165  0.10404807     0.11000
C1204       C  0.34799161  0.65287001  0.12407969    -0.52500
C1205       C  0.36451715  0.63587229  0.10409308     0.11600
H1206       H  0.39364856  0.64746773  0.18494674     0.16100
H1207       H  0.41253665  0.62827941  0.09101714     0.01800
H1208       H  0.38783840  0.72048444  0.12600208     0.16400
H1209       H  0.32354467  0.65071788  0.12475376     0.16200
N1210       N  0.33623764  0.55186954  0.00070116    -0.35100
N1211       N  0.35829597  0.00800416  0.04666351    -0.55700
N1212       N  0.35598145  0.95611439  0.00245026    -0.35100
N1213       N  0.32127748  0.00090253  0.45529003    -0.55700
C1214       C  0.34769414  0.57074216  0.02297038     0.28500
C1215       C  0.32560345  0.57277922  0.47044539     0.28500
C1216       C  0.36522521  0.93976243  0.02780719     0.28500
C1217       C  0.33900262  0.93574649  0.47767595     0.28500
C1218       C  0.35278016  0.52967867  0.06432783     0.37100
C1219       C  0.36486245  0.98359988  0.06601567     0.37100
C1220       C  0.32114856  0.53095304  0.43089055     0.37100
C1221       C  0.32280478  0.97504497  0.43756072     0.37100
C1222       C  0.35399928  0.60066145  0.01088799    -0.20400
C1223       C  0.33634783  0.60257287  0.47871316    -0.20400
C1224       C  0.37541852  0.91002970  0.01963775    -0.20400
C1225       C  0.35531671  0.90926351  0.48749207    -0.20400
C1226       C  0.35616593  0.52054656  0.09458466    -0.21500
C1227       C  0.37197986  0.99528482  0.09464569    -0.21500
C1228       C  0.32102647  0.52117283  0.40096051    -0.21500
C1229       C  0.31397194  0.98289668  0.40800901    -0.21500
C1230       C  0.35342561  0.56164363  0.05373492    -0.16800
C1231       C  0.32119233  0.56312171  0.43997927    -0.16800
C1232       C  0.33518163  0.94545496  0.44690017    -0.16800
C1233       C  0.36682426  0.95114645  0.05805650    -0.16800
H1234       H  0.36369933  0.62093765  0.02248133     0.16100
H1235       H  0.34181956  0.62248577  0.46389296     0.16100
H1236       H  0.38503348  0.89161889  0.03430603     0.16100
H1237       H  0.36756926  0.89285681  0.47373627     0.16100
H1238       H  0.35825763  0.53577916  0.11408281     0.14400
H1239       H  0.37846991  0.98190834  0.11495071     0.14400
H1240       H  0.31868910  0.53584378  0.38062892     0.14400
H1241       H  0.31354540  0.96752387  0.38855036     0.14400
H1242       H  0.32742388  0.52906624  0.00335678     0.27600
H1243       H  0.34570226  0.97818922  0.00196041     0.27600
C1244       C  0.35066068  0.61234389  0.08287039    -0.14900
C1245       C  0.36562568  0.58590142  0.07534815    -0.30100
H1246       H  0.32774591  0.61620561  0.07409455     0.14100
H1247       H  0.38728174  0.58064946  0.08648694     0.14700
C1248       C  0.43359888  0.68044832  0.05735895    -0.14900
C1249       C  0.42475674  0.69420458  0.08298941    -0.30100
H1250       H  0.42310504  0.65834131  0.05014319     0.14100
H1251       H  0.43378310  0.71748314  0.08874800     0.14700
C1252       C  0.42773042  0.59088517  0.17346571    -0.14900
C1253       C  0.42974795  0.60959526  0.14859393    -0.30100
H1254       H  0.40849201  0.59278830  0.18821549     0.14100
H1255       H  0.44737230  0.60513442  0.13242431     0.14700
C1256       C  0.08160897  0.69552017  0.08162509    -0.14900
C1257       C  0.09605740  0.66761005  0.08369512    -0.30100
H1258       H  0.08455940  0.71309309  0.09923256     0.14100
H1259       H  0.09044601  0.64962855  0.06698533     0.14700
C1260       C  0.15532262  0.58658863  0.06879346    -0.14900
C1261       C  0.16791612  0.59283161  0.09609853    -0.30100
H1262       H  0.13674765  0.60114525  0.06000700     0.14100
H1263       H  0.18828387  0.58047585  0.10385023     0.14700
C1264       C  0.08743999  0.59396034  0.15847601    -0.14900
C1265       C  0.06961515  0.59566427  0.18276819    -0.30100
H1266       H  0.08430999  0.57398619  0.14335836     0.14100
H1267       H  0.07020136  0.61659863  0.19685030     0.14700
C1268       C  0.07097455  0.83372997  0.10111277    -0.14900
C1269       C  0.06571872  0.80437421  0.09042286    -0.30100
H1270       H  0.05587299  0.85271655  0.09350434     0.14100
H1271       H  0.08097484  0.78494594  0.09605783     0.14700
C1272       C  0.14107865  0.91092948  0.09702056    -0.14900
C1273       C  0.16805658  0.92000181  0.08595513    -0.30100
H1274       H  0.12113720  0.92337995  0.08825469     0.14100
H1275       H  0.18843076  0.90728434  0.09291280     0.14700
C1276       C  0.07115177  0.92714748  0.16827031    -0.14900
C1277       C  0.08110835  0.89949349  0.18039251    -0.30100
H1278       H  0.08126510  0.93663860  0.14776212     0.14100
H1279       H  0.07302161  0.89128853  0.20228219     0.14700
C1280       C  0.44004133  0.79521646  0.08992705    -0.14900
C1281       C  0.42942098  0.82484629  0.09340121    -0.30100
H1282       H  0.43368168  0.77607987  0.10538424     0.14100
H1283       H  0.43830037  0.84321369  0.07831664     0.14700
C1284       C  0.35916676  0.90297715  0.09053007    -0.14900
C1285       C  0.37624509  0.92827023  0.08257868    -0.30100
H1286       H  0.33679381  0.89981897  0.08013999     0.14100
H1287       H  0.39752040  0.93303036  0.09458095     0.14700
C1288       C  0.43264088  0.92191735  0.18429602    -0.14900
C1289       C  0.43396427  0.90082016  0.16181646    -0.30100
H1290       H  0.41268265  0.92279731  0.19818929     0.14100
H1291       H  0.45264127  0.90280700  0.14623928     0.14700
C1292       C  0.08885858  0.61238142  0.32442510    -0.14900
C1293       C  0.08048064  0.58277000  0.33288177    -0.30100
H1294       H  0.08011669  0.62257074  0.30317724     0.14100
H1295       H  0.09106763  0.57177514  0.35291655     0.14700
C1296       C  0.14909862  0.59515021  0.40942584    -0.14900
C1297       C  0.17537002  0.59057745  0.42487055    -0.30100
H1298       H  0.13037978  0.57892238  0.41386759     0.14100
H1299       H  0.19440171  0.60674932  0.42222231     0.14700
C1300       C  0.07996079  0.69925531  0.42674706    -0.14900
C1301       C  0.08060638  0.67303988  0.40959937    -0.30100
H1302       H  0.09849670  0.71633415  0.42619910     0.14100
H1303       H  0.06290168  0.65524723  0.41259720     0.14700
C1304       C  0.08060084  0.79821077  0.40944022    -0.14900
C1305       C  0.08148303  0.82706193  0.39587559    -0.30100
H1306       H  0.09945740  0.78202244  0.40735892     0.14100
H1307       H  0.06362530  0.84372103  0.40086634     0.14700
C1308       C  0.08899177  0.90685071  0.32723397    -0.14900
C1309       C  0.06103969  0.90970293  0.33819002    -0.30100
H1310       H  0.09687080  0.92312064  0.30965962     0.14100
H1311       H  0.05251825  0.89189924  0.35405615     0.14700
C1312       C  0.15166493  0.90488008  0.41033104    -0.14900
C1313       C  0.17816172  0.92066423  0.41269221    -0.30100
H1314       H  0.13393667  0.91001527  0.42619307     0.14100
H1315       H  0.19538462  0.91819910  0.39574274     0.14700
C1316       C  0.32309477  0.58840371  0.41612614    -0.14900
C1317       C  0.34907944  0.59214676  0.40141655    -0.30100
H1318       H  0.30572914  0.60654812  0.41460882     0.14100
H1319       H  0.36711778  0.57510116  0.40593416     0.14700
C1320       C  0.42214112  0.57866234  0.34369740    -0.19600
C1321       C  0.41733594  0.60779329  0.33120691    -0.30100
H1322       H  0.40712527  0.57008386  0.36127443     0.14100
H1323       H  0.43024142  0.61588683  0.31185045     0.14700
C1324       C  0.41448921  0.67405152  0.41262400    -0.14900
C1325       C  0.41759435  0.70351762  0.42375282    -0.30100
H1326       H  0.42924650  0.65553882  0.42194756     0.14100
H1327       H  0.40291628  0.72280186  0.41622432     0.14700
C1328       C  0.33342653  0.89833605  0.41412239    -0.14900
C1329       C  0.34776938  0.92483621  0.42324087    -0.30100
H1330       H  0.31113847  0.89275604  0.42281213     0.14100
H1331       H  0.36900759  0.93199634  0.41312447     0.14700
C1332       C  0.40108739  0.81481596  0.41242799    -0.14900
C1333       C  0.42754563  0.82633097  0.42351097    -0.30100
H1334       H  0.39364190  0.79121014  0.41951509     0.14100
H1335       H  0.43635139  0.84866269  0.41452714     0.14700
C1336       C  0.41145176  0.90248686  0.34846297    -0.14900
C1337       C  0.41777116  0.91431777  0.32072079    -0.30100
H1338       H  0.42456886  0.91120369  0.36783817     0.14100
H1339       H  0.40442403  0.90769056  0.30080783     0.14700
C1340       C  0.32398582  0.82560157  0.32542179    -0.14900
C1341       C  0.33280110  0.80531347  0.30401072    -0.30100
H1342       H  0.29993949  0.83036941  0.32730882     0.14100
H1343       H  0.35662659  0.79950994  0.30225804     0.14700
C1344       C  0.31145287  0.68134611  0.30960379    -0.14900
C1345       C  0.33090644  0.68950799  0.33237329    -0.30100
H1346       H  0.31163843  0.65724358  0.30117126     0.14100
H1347       H  0.33145946  0.71421666  0.33923302     0.14700
C1348       C  0.17523766  0.82744746  0.32779963    -0.14900
C1349       C  0.16891104  0.80805498  0.30447305    -0.30100
H1350       H  0.19879210  0.83075206  0.33489424     0.14100
H1351       H  0.14535579  0.80385557  0.29789181     0.14700
C1352       C  0.34648016  0.82094340  0.17547301    -0.14900
C1353       C  0.32093345  0.80637982  0.16496573    -0.30100
H1354       H  0.35111571  0.82101262  0.19979562     0.14100
H1355       H  0.31624929  0.80719931  0.14064430     0.14700
C1356       C  0.19337475  0.68397253  0.32281284    -0.14900
C1357       C  0.17292290  0.69316365  0.34319323    -0.30100
H1358       H  0.19375166  0.65912183  0.31650932     0.14100
H1359       H  0.17113586  0.71826506  0.34827362     0.14700
C1360       C  0.16235943  0.81556697  0.17161608    -0.14900
C1361       C  0.18550758  0.82283379  0.19099370    -0.30100
H1362       H  0.15767292  0.79052007  0.16777497     0.14100
H1363       H  0.19199488  0.84753212  0.19411394     0.14700
C1364       C  0.32239020  0.69233737  0.17615259    -0.14900
C1365       C  0.35221085  0.69280669  0.17006697    -0.30100
H1366       H  0.30668363  0.67810860  0.16280758     0.14100
H1367       H  0.36706479  0.70793352  0.18367448     0.14700
C1368       C  0.19260005  0.69760159  0.16533930    -0.14900
C1369       C  0.16993557  0.67823062  0.17469207    -0.30100
H1370       H  0.19634501  0.70105337  0.14123201     0.14100
H1371       H  0.16563622  0.67601456  0.19882634     0.14700
O1372       O  0.18243037  0.74205168  0.72708702    -0.78600
O1373       O  0.28685201  0.71027997  0.78991851    -0.78700
O1374       O  0.26480610  0.73461297  0.68040980    -0.78700
O1375       O  0.22602313  0.70982298  0.79192537    -0.78600
O1376       O  0.28615321  0.71243466  0.72211080    -0.78700
O1377       O  0.18500965  0.73850552  0.78880690    -0.78700
O1378       O  0.26953651  0.72937641  0.83294899    -0.78600
O1379       O  0.22232246  0.71289952  0.71954751    -0.78700
C1380       C  0.19384171  0.71672982  0.71746606     1.11000
C1381       C  0.28747181  0.71108126  0.81942482     1.10900
C1382       C  0.28331718  0.71482724  0.69258903     1.11100
C1383       C  0.19802664  0.71248756  0.79627161     1.10900
O1384       O  0.20556687  0.80492471  0.78976927    -0.78600
O1385       O  0.31027897  0.77614998  0.72683166    -0.78700
O1386       O  0.21456408  0.77509378  0.69096389    -0.78700
O1387       O  0.26979295  0.78982449  0.80938662    -0.78600
O1388       O  0.31063307  0.77506385  0.78825430    -0.78700
O1389       O  0.20327847  0.80742051  0.72751815    -0.78700
O1390       O  0.21723262  0.76943855  0.82478962    -0.78600
O1391       O  0.26890069  0.79315980  0.70592293    -0.78700
Co1392     Co  0.19764643  0.77292948  0.75824713     1.51500
Co1393     Co  0.29186695  0.74566684  0.75687649     1.51700
Co1394     Co  0.24766427  0.75242387  0.71513125     1.51600
Co1395     Co  0.24972548  0.74954509  0.79892681     1.51500
O1396       O  0.24400021  0.76461451  0.75721166    -1.40600
C1397       C  0.20519951  0.79597577  0.81719292     1.11000
C1398       C  0.29705400  0.79530970  0.70896776     1.11100
C1399       C  0.20312033  0.80102354  0.69958259     1.11000
C1400       C  0.29763874  0.79293902  0.80648377     1.11000
C1401       C  0.36178293  0.83300582  0.85643592     0.88000
C1402       C  0.38641220  0.85499175  0.84306392    -0.52300
C1403       C  0.40405818  0.86989053  0.86456013     0.10900
C1404       C  0.39573544  0.86148808  0.89719295     0.21900
C1405       C  0.37907175  0.81018547  0.87829441    -0.53000
C1406       C  0.39712108  0.82491744  0.89939649     0.11000
C1407       C  0.34397189  0.85476286  0.87767852    -0.52500
C1408       C  0.36196890  0.87010357  0.89858927     0.11600
H1409       H  0.38956218  0.85831798  0.81884971     0.16100
H1410       H  0.41005544  0.87367200  0.91457149     0.01800
H1411       H  0.37770846  0.78446267  0.87668593     0.16400
H1412       H  0.31981606  0.85900664  0.87600461     0.16200
C1413       C  0.35277039  0.65293429  0.84329950     0.88000
C1414       C  0.33901911  0.62923320  0.86641260    -0.52300
C1415       C  0.36031080  0.61155863  0.88211298     0.10900
C1416       C  0.39289238  0.61905880  0.87321399     0.21900
C1417       C  0.37580778  0.67297500  0.86201027    -0.53000
C1418       C  0.39697942  0.65498787  0.87768929     0.11000
C1419       C  0.37255090  0.63229098  0.82302788    -0.52500
C1420       C  0.39320154  0.61415605  0.83885418     0.11600
H1421       H  0.31482079  0.62645237  0.86948352     0.16100
H1422       H  0.41007656  0.60471533  0.88608631     0.01800
H1423       H  0.37543735  0.69875585  0.86235602     0.16400
H1424       H  0.36987380  0.63140144  0.79848403     0.16200
C1425       C  0.15032084  0.82704914  0.87760922     0.88000
C1426       C  0.16755590  0.85180641  0.89719340    -0.52300
C1427       C  0.14883071  0.87081896  0.91309260     0.10900
C1428       C  0.11515784  0.86370019  0.90786967     0.21900
C1429       C  0.12953767  0.80894197  0.89990399    -0.53000
C1430       C  0.11121481  0.82847702  0.91563544     0.11000
C1431       C  0.12808410  0.84682628  0.85735404    -0.52500
C1432       C  0.10976803  0.86632231  0.87329464     0.11600
H1433       H  0.19209731  0.85347432  0.89890290     0.16100
H1434       H  0.10020787  0.87874582  0.92142835     0.01800
H1435       H  0.12958425  0.78329456  0.90320211     0.16400
H1436       H  0.12696645  0.84548310  0.83276115     0.16200
C1437       C  0.14023769  0.66956423  0.85006671     0.88000
C1438       C  0.12022944  0.64956027  0.82849313    -0.52300
C1439       C  0.10132796  0.62893899  0.84309361     0.10900
C1440       C  0.10346086  0.63076935  0.87789123     0.21900
C1441       C  0.11745864  0.68613032  0.87073111    -0.53000
C1442       C  0.09808996  0.66573833  0.88514761     0.11000
C1443       C  0.15655126  0.64488666  0.87146410    -0.52500
C1444       C  0.13688812  0.62464221  0.88628496     0.11600
H1445       H  0.12115994  0.65133488  0.80390772     0.16100
H1446       H  0.08755700  0.61446775  0.88976013     0.01800
H1447       H  0.11645607  0.71173689  0.87319920     0.16400
H1448       H  0.18091802  0.64444649  0.87535068     0.16200
N1449       N  0.99793837  0.93984193  0.84599926    -0.35100
N1450       N  0.45386463  0.48535015  0.82011032    -0.55700
N1451       N  0.99652085  0.54734695  0.81794366    -0.35100
N1452       N  0.04374174  0.49871223  0.81976939    -0.55700
C1453       C  0.48229896  0.93114242  0.83135782     0.28500
C1454       C  0.02211537  0.92289032  0.85667591     0.28500
C1455       C  0.47502746  0.55125343  0.83384008     0.28500
C1456       C  0.02071931  0.56410790  0.82873432     0.28500
C1457       C  0.44120359  0.97060453  0.83773493     0.37100
C1458       C  0.43569989  0.51117172  0.81915332     0.37100
C1459       C  0.05960628  0.96737702  0.85956381     0.37100
C1460       C  0.06144988  0.52504565  0.81920314     0.37100
C1461       C  0.49265625  0.90144259  0.82335863    -0.20400
C1462       C  0.01283534  0.89208088  0.86365128    -0.20400
C1463       C  0.48405396  0.57810370  0.84968591    -0.20400
C1464       C  0.01071409  0.59051821  0.84390405    -0.20400
C1465       C  0.41217916  0.97858133  0.84607143    -0.21500
C1466       C  0.40614801  0.50219339  0.81204333    -0.21500
C1467       C  0.08898432  0.97931999  0.85968843    -0.21500
C1468       C  0.09161839  0.51670063  0.81662564    -0.21500
C1469       C  0.45135683  0.93925713  0.83349807    -0.16800
C1470       C  0.05213509  0.93468934  0.86087124    -0.16800
C1471       C  0.05162592  0.55578623  0.82638457    -0.16800
C1472       C  0.44450599  0.54195442  0.82846291    -0.16800
H1473       H  0.47919702  0.88140151  0.81564997     0.16100
H1474       H  0.02650121  0.87283278  0.87295269     0.16100
H1475       H  0.46974691  0.59549708  0.85997645     0.16100
H1476       H  0.02430212  0.60825068  0.85555585     0.16100
H1477       H  0.39330116  0.96264346  0.85013690     0.14400
H1478       H  0.38638132  0.51727839  0.81058168     0.14400
H1479       H  0.10985481  0.96601982  0.85893701     0.14400
H1480       H  0.11118642  0.53237135  0.81667383     0.14400
H1481       H  0.99833257  0.96285913  0.83701114     0.27600
H1482       H  0.99728664  0.52764372  0.80403071     0.27600
C1483       C  0.35476510  0.83290482  0.65254691     0.88000
C1484       C  0.33313759  0.84978269  0.62945516    -0.52300
C1485       C  0.34757338  0.87008762  0.61000360     0.10900
C1486       C  0.38211549  0.87070257  0.61454373     0.21900
C1487       C  0.37798795  0.81602242  0.63252611    -0.53000
C1488       C  0.39217353  0.83601413  0.61236325     0.11000
C1489       C  0.37301590  0.85999804  0.66790548    -0.52500
C1490       C  0.38737491  0.87981731  0.64772371     0.11600
H1491       H  0.30867963  0.84675475  0.62917369     0.16100
H1492       H  0.39383674  0.88671046  0.59821659     0.01800
H1493       H  0.38231437  0.79067876  0.63403523     0.16400
H1494       H  0.37440843  0.86284325  0.69232273     0.16200
C1495       C  0.14842790  0.83453769  0.63723993     0.88000
C1496       C  0.12832002  0.85504992  0.65724458    -0.52300
C1497       C  0.10838998  0.87405645  0.64128319     0.10900
C1498       C  0.10974402  0.86968841  0.60666711     0.21900
C1499       C  0.12590866  0.81551222  0.61746464    -0.53000
C1500       C  0.10562594  0.83391572  0.60145030     0.11000
C1501       C  0.16339144  0.85834582  0.61504695    -0.52500
C1502       C  0.14286073  0.87674259  0.59888114     0.11600
H1503       H  0.13023066  0.85509564  0.68186612     0.16100
H1504       H  0.09324949  0.88403252  0.59302702     0.01800
H1505       H  0.12591051  0.78973921  0.61661840     0.16400
H1506       H  0.18772408  0.86012036  0.61248187     0.16200
N1507       N  0.05080438  0.78240371  0.48816421    -0.35100
N1508       N  0.00447792  0.78036965  0.53571718    -0.55700
N1509       N  0.45281851  0.79505991  0.50150921    -0.35100
N1510       N  0.98720460  0.80096482  0.96247056    -0.55700
C1511       C  0.06837631  0.78779962  0.51320340     0.28500
C1512       C  0.04986881  0.78989346  0.98808189     0.28500
C1513       C  0.43625543  0.80000314  0.52656784     0.28500
C1514       C  0.45383136  0.80021998  0.98517897     0.28500
C1515       C  0.02986191  0.77777384  0.55334187     0.37100
C1516       C  0.47505294  0.78406472  0.56611296     0.37100
C1517       C  0.01233463  0.80000904  0.94547093     0.37100
C1518       C  0.49297648  0.79379500  0.94554160     0.37100
C1519       C  0.09691354  0.79795302  0.50446566    -0.20400
C1520       C  0.07791082  0.77944676  0.99891750    -0.20400
C1521       C  0.40901021  0.81406793  0.51777487    -0.20400
C1522       C  0.42553011  0.80967771  0.99442860    -0.20400
C1523       C  0.02229463  0.77190649  0.58327242    -0.21500
C1524       C  0.48413538  0.77575248  0.59551949    -0.21500
C1525       C  0.00467307  0.80657172  0.91531155    -0.21500
C1526       C  0.50101841  0.78944927  0.91569140    -0.21500
C1527       C  0.05959983  0.78458539  0.54383002    -0.16800
C1528       C  0.04228376  0.79466834  0.95682697    -0.16800
C1529       C  0.46351579  0.80187653  0.95461813    -0.16800
C1530       C  0.44507058  0.79250219  0.55717921    -0.16800
H1531       H  0.11601960  0.80440901  0.51900563     0.16100
H1532       H  0.09684663  0.77185351  0.98574647     0.16100
H1533       H  0.39059133  0.82069571  0.53207300     0.16100
H1534       H  0.40705783  0.81915395  0.98055751     0.16100
H1535       H  0.03756164  0.76940241  0.60275575     0.14400
H1536       H  0.46989409  0.77183279  0.61489821     0.14400
H1537       H  0.01958443  0.80791643  0.89619675     0.14400
H1538       H  0.48614481  0.78943609  0.89578987     0.14400
H1539       H  0.02920852  0.77243751  0.48778264     0.27600
H1540       H  0.47291012  0.78244772  0.50080572     0.27600
C1541       C  0.15936014  0.65763707  0.65814174     0.88000
C1542       C  0.17564671  0.63565398  0.63635572    -0.52300
C1543       C  0.15700415  0.62152677  0.61545356     0.10900
C1544       C  0.12361971  0.63111369  0.61781634     0.21900
C1545       C  0.14243775  0.68160063  0.63692215    -0.53000
C1546       C  0.12332116  0.66769825  0.61606165     0.11000
C1547       C  0.13391306  0.63657385  0.67200728    -0.52500
C1548       C  0.11506032  0.62281323  0.65051183     0.11600
H1549       H  0.19990881  0.63144581  0.63745687     0.16100
H1550       H  0.10882372  0.61974961  0.60038620     0.01800
H1551       H  0.14496579  0.70721517  0.63865430     0.16400
H1552       H  0.13145565  0.63280992  0.69624595     0.16200
N1553       N  0.00164509  0.95433518  0.66667146    -0.35100
N1554       N  0.45129272  0.50575458  0.69653974    -0.55700
N1555       N  0.99849839  0.55511824  0.68387818    -0.35100
N1556       N  0.04616774  0.50813649  0.67977532    -0.55700
C1557       C  0.46885072  0.93358209  0.68255378     0.28500
C1558       C  0.02678656  0.93600932  0.66747618     0.28500
C1559       C  0.47287741  0.57333403  0.68841135     0.28500
C1560       C  0.02311872  0.57406274  0.68889966     0.28500
C1561       C  0.42903368  0.97468626  0.69013190     0.37100
C1562       C  0.43371490  0.53159650  0.70006847     0.37100
C1563       C  0.06493397  0.97761288  0.65466430     0.37100
C1564       C  0.06353001  0.53469938  0.67758753     0.37100
C1565       C  0.47723711  0.90379349  0.67279965    -0.20400
C1566       C  0.01917575  0.90556557  0.67733519    -0.20400
C1567       C  0.48133486  0.60379918  0.67915719    -0.20400
C1568       C  0.01340549  0.60393139  0.69709705    -0.20400
C1569       C  0.39906466  0.98417784  0.69084630    -0.21500
C1570       C  0.40454871  0.52204784  0.70718810    -0.21500
C1571       C  0.09240537  0.98804793  0.64338373    -0.21500
C1572       C  0.09246295  0.52668650  0.66878688    -0.21500
C1573       C  0.43834393  0.94283520  0.68663372    -0.16800
C1574       C  0.05532486  0.94540854  0.65614112    -0.16800
C1575       C  0.05382985  0.56607570  0.68357342    -0.16800
C1576       C  0.44246898  0.56340021  0.69335477    -0.16800
H1577       H  0.46278142  0.88351243  0.66806328     0.16100
H1578       H  0.03371923  0.88510073  0.67980023     0.16100
H1579       H  0.46673104  0.62384776  0.67410839     0.16100
H1580       H  0.02735690  0.62459045  0.70189999     0.16100
H1581       H  0.37899568  0.96923482  0.69015093     0.14400
H1582       H  0.38508170  0.53701938  0.71037653     0.14400
H1583       H  0.10976557  0.97389150  0.63331951     0.14400
H1584       H  0.11181931  0.54222160  0.66571885     0.14400
H1585       H  0.99991458  0.97649940  0.65601892     0.27600
H1586       H  0.99848155  0.53301952  0.67395102     0.27600
N1587       N  0.18262732  0.95125511  0.49177107    -0.35100
N1588       N  0.17825675  0.50150661  0.95044619    -0.55700
N1589       N  0.17380822  0.55166013  0.50260030    -0.35100
N1590       N  0.17166011  0.49865678  0.54630277    -0.55700
C1591       C  0.18771822  0.93663070  0.98384781     0.28500
C1592       C  0.18768383  0.93185732  0.51618050     0.28500
C1593       C  0.17554032  0.56903529  0.96928462     0.28500
C1594       C  0.16166305  0.56617570  0.52661262     0.28500
C1595       C  0.17935604  0.97448863  0.93989658     0.37100
C1596       C  0.17390726  0.52632705  0.93073901     0.37100
C1597       C  0.17441426  0.96998573  0.55651558     0.37100
C1598       C  0.17076888  0.52335934  0.56550987     0.37100
C1599       C  0.19909414  0.90831392  0.99584253    -0.20400
C1600       C  0.19656136  0.90223392  0.50640534    -0.20400
C1601       C  0.17997401  0.60030559  0.97787724    -0.20400
C1602       C  0.14924191  0.59499970  0.51713107    -0.20400
C1603       C  0.17283751  0.98135343  0.90951817    -0.21500
C1604       C  0.16935322  0.51518712  0.90159003    -0.21500
C1605       C  0.16307173  0.97695071  0.58468927    -0.21500
C1606       C  0.17608310  0.51281450  0.59511223    -0.21500
C1607       C  0.18388769  0.94345714  0.95231449    -0.16800
C1608       C  0.18090366  0.93896008  0.54655455    -0.16800
C1609       C  0.16256621  0.55473989  0.55704169    -0.16800
C1610       C  0.17367380  0.55889962  0.93868377    -0.16800
H1611       H  0.20853920  0.88888437  0.98344334     0.16100
H1612       H  0.20140906  0.88131287  0.52027881     0.16100
H1613       H  0.18365878  0.62081441  0.96321597     0.16100
H1614       H  0.13809553  0.61226813  0.53089381     0.16100
H1615       H  0.17021639  0.96472315  0.89115507     0.14400
H1616       H  0.16535364  0.52907467  0.88098644     0.14400
H1617       H  0.15781123  0.96053510  0.60301819     0.14400
H1618       H  0.17632305  0.52684562  0.61548299     0.14400
H1619       H  0.17179518  0.97299688  0.49184251     0.27600
H1620       H  0.18717804  0.53142221  0.50353416     0.27600
N1621       N  0.00101506  0.69233469  0.55072690    -0.35100
N1622       N  0.44817417  0.70439160  0.50364572    -0.55700
N1623       N  0.99755689  0.69914560  0.95868448    -0.35100
N1624       N  0.04883419  0.70124927  0.50602905    -0.55700
C1625       C  0.46857117  0.68958401  0.56790602     0.28500
C1626       C  0.02582986  0.69246081  0.56939574     0.28500
C1627       C  0.48300980  0.70140269  0.91793010     0.28500
C1628       C  0.02049977  0.70803465  0.94045970     0.28500
C1629       C  0.42922413  0.69994898  0.52707232     0.37100
C1630       C  0.44535522  0.70909907  0.95863133     0.37100
C1631       C  0.06653000  0.69314846  0.53052478     0.37100
C1632       C  0.06307111  0.70232399  0.97782823     0.37100
C1633       C  0.47786045  0.67618398  0.59556113    -0.20400
C1634       C  0.01671639  0.69296078  0.59931565    -0.20400
C1635       C  0.49071210  0.69207194  0.88907000    -0.20400
C1636       C  0.00879828  0.71883226  0.91274743    -0.20400
C1637       C  0.39941012  0.70273624  0.51684361    -0.21500
C1638       C  0.41609643  0.71316041  0.96857226    -0.21500
C1639       C  0.09581666  0.68748859  0.52139056    -0.21500
C1640       C  0.09332064  0.69848477  0.98595456    -0.21500
C1641       C  0.43803077  0.68966544  0.55673854    -0.16800
C1642       C  0.05635136  0.68878804  0.56071410    -0.16800
C1643       C  0.05169579  0.70452858  0.94759549    -0.16800
C1644       C  0.45276686  0.70427696  0.92794304    -0.16800
H1645       H  0.46387731  0.66453069  0.61231808     0.16100
H1646       H  0.03106323  0.69270183  0.61959559     0.16100
H1647       H  0.47557999  0.68622092  0.87027104     0.16100
H1648       H  0.02137222  0.72721202  0.89336039     0.16100
H1649       H  0.37913959  0.69958761  0.52994377     0.14400
H1650       H  0.39564317  0.71618341  0.95480582     0.14400
H1651       H  0.11509769  0.67992506  0.53521497     0.14400
H1652       H  0.11234246  0.69655016  0.97106843     0.14400
H1653       H  0.00093830  0.68728518  0.52788187     0.27600
H1654       H  0.99971026  0.68602934  0.97875846     0.27600
C1655       C  0.34343457  0.65815466  0.65901705     0.88000
C1656       C  0.36713676  0.63567783  0.67399926    -0.52300
C1657       C  0.38502720  0.62080695  0.65361967     0.10900
C1658       C  0.37752310  0.62992542  0.62033912     0.21900
C1659       C  0.36221191  0.68116891  0.63924268    -0.53000
C1660       C  0.38020870  0.66655597  0.61893664     0.11000
C1661       C  0.32572764  0.63713386  0.63641633    -0.52500
C1662       C  0.34337369  0.62217299  0.61605152     0.11600
H1663       H  0.36936475  0.63211606  0.69838500     0.16100
H1664       H  0.39261887  0.61786713  0.60464841     0.01800
H1665       H  0.36186207  0.70681499  0.64171720     0.16400
H1666       H  0.30129357  0.63395427  0.63687498     0.16200
N1667       N  0.32199186  0.55446048  0.49567276    -0.35100
N1668       N  0.32511145  0.99880190  0.54689047    -0.55700
N1669       N  0.32712389  0.95013893  0.50189662    -0.35100
N1670       N  0.34459067  0.00221156  0.95291272    -0.55700
C1671       C  0.33172099  0.57178202  0.51976887     0.28500
C1672       C  0.33616403  0.56922728  0.97451844     0.28500
C1673       C  0.33654333  0.93363099  0.52704009     0.28500
C1674       C  0.36111016  0.93738978  0.97827540     0.28500
C1675       C  0.32493318  0.53070363  0.56086180     0.37100
C1676       C  0.32329376  0.97309862  0.56560662     0.37100
C1677       C  0.32318084  0.52612480  0.93754630     0.37100
C1678       C  0.34948286  0.97645892  0.93576228     0.37100
C1679       C  0.34049184  0.60183396  0.50968814    -0.20400
C1680       C  0.34659342  0.59976976  0.98047860    -0.20400
C1681       C  0.35371106  0.90788079  0.51859700    -0.20400
C1682       C  0.37295741  0.90859474  0.98863129    -0.20400
C1683       C  0.32222556  0.52137189  0.59099661    -0.21500
C1684       C  0.31897732  0.98256296  0.59519263    -0.21500
C1685       C  0.31467848  0.51582199  0.90880848    -0.21500
C1686       C  0.34771616  0.98503447  0.90523894    -0.21500
C1687       C  0.33255975  0.56180917  0.55071252    -0.16800
C1688       C  0.32757805  0.55845520  0.94516909    -0.16800
C1689       C  0.35713347  0.94564251  0.94695694    -0.16800
C1690       C  0.33129010  0.94203766  0.55744077    -0.16800
H1691       H  0.34913187  0.62130760  0.52320225     0.16100
H1692       H  0.34938959  0.61929698  0.96444189     0.16100
H1693       H  0.36485964  0.89046109  0.53329475     0.16100
H1694       H  0.38017065  0.88879819  0.97527123     0.16100
H1695       H  0.32418605  0.53606210  0.61086559     0.14400
H1696       H  0.31781916  0.96758583  0.61536947     0.14400
H1697       H  0.30795660  0.53033263  0.88929411     0.14400
H1698       H  0.35074325  0.96991282  0.88594967     0.14400
H1699       H  0.31172852  0.53222668  0.49622720     0.27600
H1700       H  0.31204774  0.96906535  0.50122954     0.27600
C1701       C  0.32991052  0.59944086  0.59368471    -0.14900
C1702       C  0.34623484  0.58430544  0.57306904    -0.30100
H1703       H  0.30568250  0.59473847  0.59433921     0.14100
H1704       H  0.37014993  0.58932646  0.57079197     0.14700
C1705       C  0.41448012  0.67270563  0.57493150    -0.14900
C1706       C  0.40232346  0.68472619  0.59997382    -0.30100
H1707       H  0.40648660  0.65003042  0.56640198     0.14100
H1708       H  0.40891690  0.70852806  0.60686304     0.14700
C1709       C  0.41781216  0.58733869  0.68916030    -0.14900
C1710       C  0.40984624  0.59790692  0.66109924    -0.30100
H1711       H  0.40541704  0.59444333  0.70884711     0.14100
H1712       H  0.42229944  0.58897268  0.64208333     0.14700
C1713       C  0.07702007  0.67372429  0.58405257    -0.14900
C1714       C  0.10359161  0.68601970  0.59415153    -0.30100
H1715       H  0.06875880  0.65173191  0.59424605     0.14100
H1716       H  0.11068575  0.70954939  0.58650458     0.14700
C1717       C  0.15146522  0.57580679  0.58106910    -0.14900
C1718       C  0.16851742  0.59957912  0.59239793    -0.30100
H1719       H  0.12907697  0.57094934  0.58978431     0.14100
H1720       H  0.19171879  0.60251509  0.58507059     0.14700
C1721       C  0.08916847  0.60049346  0.65560723    -0.14900
C1722       C  0.07711796  0.59221334  0.68239522    -0.30100
H1723       H  0.07986331  0.58906905  0.63544951     0.14100
H1724       H  0.08459561  0.60353534  0.70323722     0.14700
C1725       C  0.08176671  0.82161913  0.58042965    -0.14900
C1726       C  0.08258309  0.79286007  0.56760609    -0.30100
H1727       H  0.06363210  0.83780113  0.57367058     0.14100
H1728       H  0.10148071  0.77690012  0.57181169     0.14700
C1729       C  0.14983046  0.90186754  0.57594026    -0.14900
C1730       C  0.17767945  0.91192059  0.56853978    -0.30100
H1731       H  0.13050788  0.91371767  0.56508861     0.14100
H1732       H  0.19789059  0.90081020  0.57819292     0.14700
C1733       C  0.07454940  0.92128232  0.64148129    -0.14900
C1734       C  0.08858565  0.89724362  0.65657700    -0.30100
H1735       H  0.07863275  0.92535581  0.61758604     0.14100
H1736       H  0.08650944  0.89528201  0.68105598     0.14700
C1737       C  0.42276275  0.79750361  0.58181794    -0.14900
C1738       C  0.41470055  0.82719818  0.58917921    -0.30100
H1739       H  0.41420002  0.77699389  0.59426527     0.14100
H1740       H  0.42462950  0.84682878  0.57639585     0.14700
C1741       C  0.33184771  0.89098692  0.58736064    -0.14900
C1742       C  0.34245911  0.92057431  0.58231439    -0.30100
H1743       H  0.31217387  0.88219836  0.57472876     0.14100
H1744       H  0.36049842  0.92987019  0.59695633     0.14700
C1745       C  0.41441017  0.91784023  0.68292201    -0.14900
C1746       C  0.40704819  0.90763913  0.65496655    -0.30100
H1747       H  0.40453166  0.90715015  0.70298271     0.14100
H1748       H  0.41757181  0.91960781  0.63581008     0.14700
C1749       C  0.08038258  0.60691074  0.82708888    -0.14900
C1750       C  0.07498689  0.57786876  0.83886320    -0.30100
H1751       H  0.06923109  0.61450002  0.80596200     0.14100
H1752       H  0.08816192  0.56954386  0.85856207     0.14700
C1753       C  0.14451843  0.60069067  0.91082003    -0.14900
C1754       C  0.17026219  0.58373485  0.91377239    -0.30100
H1755       H  0.12662658  0.59532695  0.92668076     0.14100
H1756       H  0.18777081  0.58634076  0.89700920     0.14700
C1757       C  0.07353886  0.70153056  0.92240610    -0.14900
C1758       C  0.07349154  0.67490810  0.90584003    -0.30100
H1759       H  0.09217454  0.71843067  0.92089863     0.14100
H1760       H  0.05595339  0.65717989  0.90994483     0.14700
C1761       C  0.06764239  0.79686820  0.93492469    -0.14900
C1762       C  0.08979870  0.81852350  0.93927020    -0.30100
H1763       H  0.06596389  0.78425959  0.91363102     0.14100
H1764       H  0.08912412  0.83344519  0.95913947     0.14700
C1765       C  0.08614435  0.88713959  0.85884336    -0.14900
C1766       C  0.07642845  0.91316799  0.87293431    -0.30100
H1767       H  0.07679741  0.88121605  0.83660313     0.14100
H1768       H  0.08797370  0.92074576  0.89362752     0.14700
C1769       C  0.15833702  0.89506162  0.93534462    -0.14900
C1770       C  0.18109431  0.91597357  0.93142801    -0.30100
H1771       H  0.14330332  0.89837368  0.95420588     0.14100
H1772       H  0.19448224  0.91542830  0.91108465     0.14700
C1773       C  0.32845012  0.58220784  0.91981225    -0.14900
C1774       C  0.35440696  0.58618626  0.90496481    -0.30100
H1775       H  0.30932375  0.59788808  0.91571553     0.14100
H1776       H  0.37339799  0.57093103  0.91132560     0.14700
C1777       C  0.42040457  0.56347919  0.83870757    -0.19600
C1778       C  0.41363266  0.59121119  0.82460405    -0.30100
H1779       H  0.40877966  0.55648280  0.85925338     0.14100
H1780       H  0.42353600  0.59724260  0.80290450     0.14700
C1781       C  0.42250238  0.66681744  0.89733012    -0.14900
C1782       C  0.42718229  0.69701846  0.90608938    -0.30100
H1783       H  0.43834623  0.64892375  0.90586895     0.14100
H1784       H  0.41122886  0.71559913  0.89966511     0.14700
C1785       C  0.35038331  0.89468839  0.91913268    -0.14900
C1786       C  0.36619067  0.92165498  0.92431693    -0.30100
H1787       H  0.32866973  0.89088241  0.92974723     0.14100
H1788       H  0.38670855  0.92649057  0.91184231     0.14700
C1789       C  0.41653669  0.80686364  0.92172489    -0.14900
C1790       C  0.44366289  0.81813504  0.93123936    -0.30100
H1791       H  0.40886362  0.78370061  0.92984489     0.14100
H1792       H  0.45249197  0.83985574  0.92097088     0.14700
C1793       C  0.42876605  0.89282682  0.85842874    -0.14900
C1794       C  0.42852867  0.91314818  0.83462014    -0.30100
H1795       H  0.44626981  0.89544215  0.87601997     0.14100
H1796       H  0.40960448  0.91335867  0.81839457     0.14700
C1797       C  0.34441107  0.81460049  0.83178226    -0.14900
C1798       C  0.31424984  0.81581386  0.82629027    -0.30100
H1799       H  0.35761729  0.79814970  0.81880301     0.14100
H1800       H  0.30039316  0.83176973  0.83891936     0.14700
C1801       C  0.30815387  0.69008891  0.83768557    -0.14900
C1802       C  0.32944863  0.67217518  0.82492643    -0.30100
H1803       H  0.30716290  0.69084235  0.86227617     0.14100
H1804       H  0.33031173  0.67152872  0.80031485     0.14700
C1805       C  0.17087829  0.80520964  0.86016085    -0.14900
C1806       C  0.18959655  0.81655384  0.83881675    -0.30100
H1807       H  0.16919429  0.77966270  0.86395628     0.14100
H1808       H  0.18982792  0.84198893  0.83403277     0.14700
C1809       C  0.33883359  0.81054614  0.67485142    -0.14900
C1810       C  0.31429798  0.81896123  0.69063029    -0.30100
H1811       H  0.34665758  0.78613318  0.67681681     0.14100
H1812       H  0.30476306  0.84250593  0.68713319     0.14700
C1813       C  0.18122881  0.68677866  0.81279705    -0.14900
C1814       C  0.16007160  0.69384659  0.83329896    -0.30100
H1815       H  0.18714550  0.66213324  0.80923829     0.14100
H1816       H  0.15594485  0.71884338  0.83740887     0.14700
C1817       C  0.17017637  0.81294639  0.65500662    -0.14900
C1818       C  0.18805521  0.82338343  0.67789455    -0.30100
H1819       H  0.16905361  0.78752297  0.65097618     0.14100
H1820       H  0.18778581  0.84841843  0.68353736     0.14700
C1821       C  0.30068907  0.69424058  0.67218330    -0.14900
C1822       C  0.32350744  0.67495797  0.68155617    -0.30100
H1823       H  0.29607435  0.69697360  0.64793750     0.14100
H1824       H  0.32850237  0.67203263  0.70570447     0.14700
C1825       C  0.17287330  0.69438244  0.70122581    -0.14900
C1826       C  0.18167238  0.67331905  0.68062660    -0.30100
H1827       H  0.14874335  0.69870238  0.70304682     0.14100
H1828       H  0.20578380  0.66936866  0.67811537     0.14700
O1829       O  0.70998609  0.20224263  0.23399444    -0.78600
O1830       O  0.78193934  0.20845233  0.28585994    -0.78700
O1831       O  0.77468076  0.23966760  0.18660937    -0.78700
O1832       O  0.71143662  0.22030276  0.30329197    -0.78600
O1833       O  0.78685269  0.20559545  0.22332590    -0.78700
O1834       O  0.66940891  0.22408043  0.27544048    -0.78700
O1835       O  0.76861915  0.24255890  0.31955576    -0.78600
O1836       O  0.71425522  0.23205804  0.19229387    -0.78700
C1837       C  0.70719143  0.20568938  0.20532426     1.11000
C1838       C  0.78267683  0.21764295  0.31305346     1.10900
C1839       C  0.78544753  0.21296742  0.19532271     1.11100
C1840       C  0.68291782  0.21333355  0.29894603     1.10900
O1841       O  0.69382098  0.28252839  0.28213562    -0.78600
O1842       O  0.81027833  0.27045213  0.22217535    -0.78700
O1843       O  0.71059774  0.29718714  0.21498324    -0.78700
O1844       O  0.76208175  0.30134902  0.28867924    -0.78600
O1845       O  0.80431054  0.27392248  0.28378743    -0.78700
O1846       O  0.67824440  0.26007084  0.22594657    -0.78700
O1847       O  0.71767616  0.27871760  0.32679530    -0.78600
O1848       O  0.77194236  0.30259290  0.21280130    -0.78700
Co1849     Co  0.70515150  0.24094636  0.25862649     1.51500
Co1850     Co  0.79279382  0.23963439  0.25370493     1.51700
Co1851     Co  0.74301841  0.26764799  0.20478191     1.51600
Co1852     Co  0.73668094  0.26217522  0.29216698     1.51500
O1853       O  0.74823393  0.25248531  0.24880636    -1.40600
C1854       C  0.69607114  0.29003663  0.31055403     1.11000
C1855       C  0.79996436  0.29706530  0.21228396     1.11100
C1856       C  0.68403737  0.28630867  0.21304122     1.11000
C1857       C  0.79073732  0.29898418  0.29197115     1.11000
C1858       C  0.85750470  0.34272310  0.33597650     0.88000
C1859       C  0.88090353  0.36456699  0.32022631    -0.52300
C1860       C  0.89945744  0.38100115  0.33996844     0.10900
C1861       C  0.89317008  0.37365219  0.37356238     0.21900
C1862       C  0.87646480  0.32127929  0.35781491    -0.53000
C1863       C  0.89532936  0.33721252  0.37738782     0.11000
C1864       C  0.84060834  0.36493793  0.35727668    -0.52500
C1865       C  0.85918768  0.38131376  0.37693721     0.11600
H1866       H  0.88250093  0.36671491  0.29573059     0.16100
H1867       H  0.90865053  0.38649065  0.38922407     0.01800
H1868       H  0.87501537  0.29547749  0.35776185     0.16400
H1869       H  0.81621450  0.36758943  0.35734744     0.16200
C1870       C  0.84839830  0.16644122  0.34713128     0.88000
C1871       C  0.83608488  0.14205633  0.37063012    -0.52300
C1872       C  0.85863929  0.12598976  0.38633319     0.10900
C1873       C  0.89055175  0.13573879  0.37709188     0.21900
C1874       C  0.87024290  0.18831840  0.36551951    -0.53000
C1875       C  0.89249222  0.17177737  0.38125759     0.11000
C1876       C  0.86919845  0.14698977  0.32714128    -0.52500
C1877       C  0.89070417  0.13052319  0.34284416     0.11600
H1878       H  0.81212051  0.13783006  0.37403119     0.16100
H1879       H  0.90875033  0.12275729  0.38986071     0.01800
H1880       H  0.86845379  0.21403371  0.36559997     0.16400
H1881       H  0.86618580  0.14487168  0.30269414     0.16200
C1882       C  0.64741627  0.33428671  0.36998662     0.88000
C1883       C  0.66468261  0.35061254  0.39630314    -0.52300
C1884       C  0.64685997  0.36910787  0.41349789     0.10900
C1885       C  0.61374351  0.37007168  0.40287091     0.21900
C1886       C  0.62095344  0.31631689  0.38527927    -0.53000
C1887       C  0.60315642  0.33539687  0.40221624     0.11000
C1888       C  0.63203733  0.36216208  0.35190701    -0.52500
C1889       C  0.61466952  0.38096368  0.36966974     0.11600
H1890       H  0.68880116  0.34770127  0.40094591     0.16100
H1891       H  0.59952282  0.38544998  0.41697653     0.01800
H1892       H  0.61646464  0.29111986  0.38239418     0.16400
H1893       H  0.63535986  0.36755551  0.32807821     0.16200
C1894       C  0.65418497  0.15388542  0.36154434     0.88000
C1895       C  0.63118918  0.13500533  0.34185903    -0.52300
C1896       C  0.61093603  0.11749810  0.35807522     0.10900
C1897       C  0.61626376  0.11949341  0.39253805     0.21900
C1898       C  0.63457260  0.17327772  0.38321905    -0.53000
C1899       C  0.61503395  0.15479435  0.39970013     0.11000
C1900       C  0.66956332  0.12820881  0.38226704    -0.52500
C1901       C  0.64926961  0.11003188  0.39827800     0.11600
H1902       H  0.63094328  0.13549249  0.31719499     0.16100
H1903       H  0.60053231  0.10496395  0.40633826     0.01800
H1904       H  0.63686150  0.19877892  0.38605930     0.16400
H1905       H  0.69386975  0.12455136  0.38358752     0.16200
N1906       N  0.50133475  0.44803729  0.33410523    -0.35100
N1907       N  0.94256067  0.99997991  0.32008474    -0.55700
N1908       N  0.48960967  0.04960442  0.33167673    -0.35100
N1909       N  0.53855257  0.00309918  0.33633755    -0.55700
C1910       C  0.97767091  0.43859928  0.29707333     0.28500
C1911       C  0.52592835  0.42966787  0.33993961     0.28500
C1912       C  0.96874991  0.06498570  0.32771739     0.28500
C1913       C  0.51187368  0.06710783  0.34516278     0.28500
C1914       C  0.93681703  0.47931915  0.30142712     0.37100
C1915       C  0.92661277  0.02521171  0.32922247     0.37100
C1916       C  0.56573339  0.47081243  0.33253276     0.37100
C1917       C  0.55525916  0.03003154  0.33936823     0.37100
C1918       C  0.98784657  0.40747423  0.29729176    -0.20400
C1919       C  0.51685196  0.40074571  0.35246626    -0.20400
C1920       C  0.97978324  0.09588802  0.32507425    -0.20400
C1921       C  0.49930373  0.09350540  0.35837119    -0.20400
C1922       C  0.90665912  0.48815431  0.30216222    -0.21500
C1923       C  0.89727322  0.01595423  0.33608369    -0.21500
C1924       C  0.59527025  0.48096304  0.32821312    -0.21500
C1925       C  0.58588882  0.02260990  0.34077755    -0.21500
C1926       C  0.94686353  0.44736061  0.30037701    -0.16800
C1927       C  0.55640701  0.43856755  0.33501284    -0.16800
C1928       C  0.54327654  0.06032416  0.34563662    -0.16800
C1929       C  0.93798055  0.05657151  0.33122681    -0.16800
H1930       H  0.97447043  0.38591723  0.29931672     0.16100
H1931       H  0.53111663  0.38112360  0.35988380     0.16100
H1932       H  0.96717210  0.11767086  0.32215303     0.16100
H1933       H  0.51089496  0.11220806  0.37070118     0.16100
H1934       H  0.88686251  0.47289788  0.30050191     0.14400
H1935       H  0.87911523  0.03069684  0.34386117     0.14400
H1936       H  0.61484519  0.46643408  0.32413721     0.14400
H1937       H  0.60504450  0.03830168  0.34454908     0.14400
H1938       H  0.50112237  0.46969559  0.32235582     0.27600
H1939       H  0.49267167  0.03015253  0.31786672     0.27600
C1940       C  0.86071000  0.33655227  0.16073794     0.88000
C1941       C  0.84012890  0.35415745  0.13711637    -0.52300
C1942       C  0.85546188  0.37422025  0.11799003     0.10900
C1943       C  0.88986148  0.37491030  0.12459474     0.21900
C1944       C  0.88455972  0.32002690  0.14153817    -0.53000
C1945       C  0.89976034  0.34026878  0.12264596     0.11000
C1946       C  0.87836382  0.36324748  0.17738960    -0.52500
C1947       C  0.89358131  0.38344372  0.15818151     0.11600
H1948       H  0.81570074  0.35097774  0.13566275     0.16100
H1949       H  0.90292492  0.39112645  0.10965596     0.01800
H1950       H  0.88909957  0.29469300  0.14289954     0.16400
H1951       H  0.87857044  0.36578520  0.20185591     0.16200
C1952       C  0.64444835  0.33887510  0.15148591     0.88000
C1953       C  0.62652387  0.36142653  0.17106396    -0.52300
C1954       C  0.60500935  0.37819560  0.15537734     0.10900
C1955       C  0.60336316  0.37100186  0.12122037     0.21900
C1956       C  0.62060733  0.31779568  0.13524056    -0.53000
C1957       C  0.59901793  0.33479849  0.11925857     0.11000
C1958       C  0.65735490  0.36043495  0.12611775    -0.52500
C1959       C  0.63563016  0.37745734  0.11021065     0.11600
H1960       H  0.63108847  0.36454548  0.19518700     0.16100
H1961       H  0.58604029  0.38475954  0.10801595     0.01800
H1962       H  0.62095230  0.29199885  0.13632910     0.16400
H1963       H  0.68140388  0.36244730  0.12193128     0.16200
N1964       N  0.54642033  0.28156131  0.00640288    -0.35100
N1965       N  0.49811393  0.28473008  0.05127978    -0.55700
N1966       N  0.95308906  0.30042058  0.00692442    -0.35100
N1967       N  0.49077302  0.30025236  0.45874938    -0.55700
C1968       C  0.56316050  0.28695470  0.03200232     0.28500
C1969       C  0.55310819  0.29403447  0.48448265     0.28500
C1970       C  0.93628320  0.30442398  0.03190785     0.28500
C1971       C  0.95011645  0.31197956  0.46583839     0.28500
C1972       C  0.52236005  0.27944440  0.06997581     0.37100
C1973       C  0.97634979  0.29385040  0.07152273     0.37100
C1974       C  0.51521473  0.29398048  0.44186211     0.37100
C1975       C  0.99051347  0.31006038  0.42726510     0.37100
C1976       C  0.59260484  0.29486487  0.02423473    -0.20400
C1977       C  0.58147425  0.30247521  0.49607877    -0.20400
C1978       C  0.90843135  0.31718132  0.02336023    -0.20400
C1979       C  0.92191598  0.32119231  0.47560453    -0.20400
C1980       C  0.51286464  0.27155559  0.09889435    -0.21500
C1981       C  0.98623320  0.28877813  0.10130722    -0.21500
C1982       C  0.50694277  0.29340875  0.41135727    -0.21500
C1983       C  0.99964441  0.30755209  0.39756406    -0.21500
C1984       C  0.55287861  0.28497107  0.06223108    -0.16800
C1985       C  0.54548411  0.29308565  0.45314437    -0.16800
C1986       C  0.96042186  0.31625905  0.43569177    -0.16800
C1987       C  0.94581034  0.29865262  0.06242227    -0.16800
H1988       H  0.61147706  0.30050065  0.03938655     0.16100
H1989       H  0.60146695  0.30880414  0.48350142     0.16100
H1990       H  0.89001518  0.32321520  0.03793675     0.16100
H1991       H  0.90395189  0.33243045  0.46227966     0.16100
H1992       H  0.52697176  0.26667281  0.11884319     0.14400
H1993       H  0.97249527  0.28533609  0.12112972     0.14400
H1994       H  0.52152845  0.28985467  0.39233010     0.14400
H1995       H  0.98542001  0.30797563  0.37719949     0.14400
H1996       H  0.52432382  0.27292779  0.00529331     0.27600
H1997       H  0.97372303  0.28886103  0.00623062     0.27600
C1998       C  0.66276498  0.16355290  0.13946969     0.88000
C1999       C  0.68545142  0.14150880  0.12443625    -0.52300
C2000       C  0.67245310  0.12132032  0.10385526     0.10900
C2001       C  0.63778438  0.12511236  0.10037723     0.21900
C2002       C  0.64572368  0.18044034  0.11282680    -0.53000
C2003       C  0.63240169  0.16028414  0.09247458     0.11000
C2004       C  0.63887645  0.14093425  0.15337082    -0.52500
C2005       C  0.62575410  0.12067607  0.13262328     0.11600
H2006       H  0.70960571  0.14171083  0.12979226     0.16100
H2007       H  0.62667065  0.10877129  0.08397752     0.01800
H2008       H  0.64403329  0.20611715  0.11064359     0.16400
H2009       H  0.63301445  0.14127727  0.17712049     0.16200
N2010       N  0.49518738  0.45619001  0.18281498    -0.35100
N2011       N  0.94361847  0.99644034  0.19069540    -0.55700
N2012       N  0.51164813  0.05432838  0.17504298    -0.35100
N2013       N  0.55757267  0.00574182  0.16968882    -0.55700
C2014       C  0.97619586  0.43818513  0.19106306     0.28500
C2015       C  0.51915532  0.43659890  0.18508785     0.28500
C2016       C  0.96188828  0.06454291  0.18209105     0.28500
C2017       C  0.53713434  0.07249135  0.17729436     0.28500
C2018       C  0.93535973  0.47530986  0.20538777     0.37100
C2019       C  0.92512960  0.02139670  0.19506718     0.37100
C2020       C  0.55813051  0.47247698  0.16358379     0.37100
C2021       C  0.57478775  0.03157827  0.16305743     0.37100
C2022       C  0.98557292  0.41082325  0.17695538    -0.20400
C2023       C  0.51083415  0.40827661  0.19922840    -0.20400
C2024       C  0.96941545  0.09472834  0.17129056    -0.20400
C2025       C  0.52939812  0.10276788  0.18627805    -0.20400
C2026       C  0.90606856  0.48225649  0.21359910    -0.21500
C2027       C  0.89726991  0.01060471  0.20501278    -0.21500
C2028       C  0.58435502  0.47906906  0.14783686    -0.21500
C2029       C  0.60205991  0.02204060  0.15119181    -0.21500
C2030       C  0.94578614  0.44450588  0.19870789    -0.16800
C2031       C  0.54656234  0.44186311  0.17024941    -0.16800
C2032       C  0.56666414  0.06347978  0.16878553    -0.16800
C2033       C  0.93188126  0.05324862  0.18662869    -0.16800
H2034       H  0.97183403  0.39073356  0.16991984     0.16100
H2035       H  0.52477717  0.38748617  0.20324599     0.16100
H2036       H  0.95417933  0.11350161  0.16389794     0.16100
H2037       H  0.54434469  0.12300348  0.18947248     0.16100
H2038       H  0.88808902  0.46552559  0.21875690     0.14400
H2039       H  0.87756352  0.02469030  0.20972200     0.14400
H2040       H  0.59942661  0.46227185  0.13774030     0.14400
H2041       H  0.62099890  0.03671015  0.14435173     0.14400
H2042       H  0.49397930  0.47622713  0.16872081     0.27600
H2043       H  0.50978852  0.03216526  0.16521774     0.27600
N2044       N  0.67916946  0.44185092  0.99457727    -0.35100
N2045       N  0.68508154  0.99056620  0.46222629    -0.55700
N2046       N  0.70561650  0.04500990  0.99313188    -0.35100
N2047       N  0.70604848  0.00101990  0.04483550    -0.55700
C2048       C  0.69060754  0.42453399  0.49105157     0.28500
C2049       C  0.67947784  0.42351598  0.02022715     0.28500
C2050       C  0.67638814  0.05661187  0.48479584     0.28500
C2051       C  0.70554651  0.06542362  0.01650077     0.28500
C2052       C  0.68331337  0.46396113  0.44843868     0.37100
C2053       C  0.68919419  0.01724999  0.44510175     0.37100
C2054       C  0.66810197  0.46551157  0.05799996     0.37100
C2055       C  0.69558480  0.02710625  0.05870299     0.37100
C2056       C  0.69920563  0.39483261  0.50223734    -0.20400
C2057       C  0.68656610  0.39250191  0.01291846    -0.20400
C2058       C  0.66434575  0.08561274  0.49281545    -0.20400
C2059       C  0.71292077  0.09573622  0.00621058    -0.20400
C2060       C  0.67546369  0.47199766  0.41858676    -0.21500
C2061       C  0.69485687  0.00912917  0.41541125    -0.21500
C2062       C  0.66079580  0.47544561  0.08675785    -0.21500
C2063       C  0.68468102  0.01877666  0.08698022    -0.21500
C2064       C  0.68677758  0.43250533  0.45987054    -0.16800
C2065       C  0.67177033  0.43329180  0.04974720    -0.16800
C2066       C  0.69554749  0.05825320  0.04599794    -0.16800
C2067       C  0.68443502  0.04876615  0.45480311    -0.16800
H2068       H  0.70608488  0.37460514  0.48926837     0.16100
H2069       H  0.68822113  0.37206314  0.02811110     0.16100
H2070       H  0.65977187  0.10607973  0.47824995     0.16100
H2071       H  0.71416279  0.11724882  0.01932712     0.16100
H2072       H  0.67074318  0.45605396  0.40000787     0.14400
H2073       H  0.69815619  0.02506828  0.39620291     0.14400
H2074       H  0.65644707  0.46088220  0.10667694     0.14400
H2075       H  0.67478878  0.03417690  0.10341711     0.14400
H2076       H  0.67121416  0.46493061  0.99237398     0.27600
H2077       H  0.69635157  0.02230440  0.99344111     0.27600
N2078       N  0.51554166  0.20437678  0.03753537    -0.35100
N2079       N  0.94223243  0.19414666  0.00017200    -0.55700
N2080       N  0.49960340  0.19749708  0.45193224    -0.35100
N2081       N  0.55913976  0.20216909  0.98769232    -0.55700
C2082       C  0.96011230  0.18403870  0.06563486     0.28500
C2083       C  0.54167034  0.19867285  0.05340188     0.28500
C2084       C  0.97586718  0.21990870  0.42488574     0.28500
C2085       C  0.52501970  0.19303477  0.43594715     0.28500
C2086       C  0.92263963  0.19356284  0.02334901     0.37100
C2087       C  0.93668749  0.22219416  0.46488260     0.37100
C2088       C  0.57864227  0.20645391  0.01151621     0.37100
C2089       C  0.56367689  0.19555836  0.47847030     0.37100
C2090       C  0.96915767  0.17023877  0.09320294    -0.20400
C2091       C  0.53492712  0.18793731  0.08245341    -0.20400
C2092       C  0.98459542  0.21383094  0.39552571    -0.20400
C2093       C  0.51695724  0.18422213  0.40658617    -0.20400
C2094       C  0.89353067  0.19974722  0.01246042    -0.21500
C2095       C  0.90699844  0.22408934  0.47426525    -0.21500
C2096       C  0.60755843  0.21245780  0.00117228    -0.21500
C2097       C  0.59333743  0.19673155  0.48952989    -0.21500
C2098       C  0.92996927  0.18363980  0.05346344    -0.16800
C2099       C  0.57153422  0.20206493  0.04250672    -0.16800
C2100       C  0.55536548  0.19565505  0.44709897    -0.16800
C2101       C  0.94520838  0.22112762  0.43412929    -0.16800
H2102       H  0.95527517  0.15719807  0.10911646     0.16100
H2103       H  0.55071494  0.18128218  0.10060860     0.16100
H2104       H  0.97011465  0.21011743  0.37572005     0.16100
H2105       H  0.53192801  0.17852939  0.38838579     0.16100
H2106       H  0.87297363  0.20006823  0.02535589     0.14400
H2107       H  0.88687919  0.22813196  0.46024112     0.14400
H2108       H  0.62799695  0.21643885  0.01468486     0.14400
H2109       H  0.61366909  0.20059958  0.47668679     0.14400
H2110       H  0.51386381  0.21477126  0.01602760     0.27600
H2111       H  0.49880544  0.20663581  0.47366707     0.27600
C2112       C  0.83486440  0.15048734  0.15466885     0.88000
C2113       C  0.85651231  0.12505871  0.16822885    -0.52300
C2114       C  0.87390563  0.11061623  0.14719565     0.10900
C2115       C  0.86763035  0.12284596  0.11451308     0.21900
C2116       C  0.85579579  0.17337850  0.13705156    -0.53000
C2117       C  0.87287097  0.15909412  0.11583150     0.11000
C2118       C  0.81597428  0.13283705  0.13011347    -0.52500
C2119       C  0.83325496  0.11812500  0.10905639     0.11600
H2120       H  0.85818063  0.11975119  0.19237567     0.16100
H2121       H  0.88170716  0.11084860  0.09765649     0.01800
H2122       H  0.85739379  0.19867097  0.14147596     0.16400
H2123       H  0.79139116  0.13202062  0.12974500     0.16200
N2124       N  0.78519058  0.05540475  0.99910709    -0.35100
N2125       N  0.83489425  0.48907806  0.04266203    -0.55700
N2126       N  0.83405339  0.44314852  0.99383874    -0.35100
N2127       N  0.83807227  0.49859394  0.44982754    -0.55700
C2128       C  0.78916920  0.07357146  0.02411205     0.28500
C2129       C  0.83836881  0.07108854  0.47280129     0.28500
C2130       C  0.84407416  0.42448624  0.01740610     0.28500
C2131       C  0.85610579  0.43367634  0.47109005     0.28500
C2132       C  0.78019807  0.03132197  0.06349945     0.37100
C2133       C  0.83674665  0.46214278  0.05996066     0.37100
C2134       C  0.82886981  0.02953643  0.43405782     0.37100
C2135       C  0.83990012  0.47335500  0.43134409     0.37100
C2136       C  0.79607137  0.10448154  0.01502524    -0.20400
C2137       C  0.84825688  0.10134807  0.48054514    -0.20400
C2138       C  0.85665920  0.39706811  0.00616167    -0.20400
C2139       C  0.87246027  0.40704219  0.48040937    -0.20400
C2140       C  0.77282396  0.02118781  0.09252046    -0.21500
C2141       C  0.83734417  0.46987955  0.09048257    -0.21500
C2142       C  0.82321417  0.01962083  0.40460064    -0.21500
C2143       C  0.83345378  0.48268702  0.40156736    -0.21500
C2144       C  0.78634764  0.06330657  0.05489148    -0.16800
C2145       C  0.83054071  0.06170427  0.44281971    -0.16800
C2146       C  0.85144535  0.44329713  0.44037375    -0.16800
C2147       C  0.84285065  0.43141747  0.04881726    -0.16800
H2148       H  0.79987319  0.12488586  0.02927426     0.16100
H2149       H  0.85088681  0.12199604  0.46586144     0.16100
H2150       H  0.86652571  0.37735176  0.01889862     0.16100
H2151       H  0.88397330  0.39039898  0.46628495     0.16100
H2152       H  0.76829320  0.03576497  0.11186327     0.14400
H2153       H  0.84005652  0.45419354  0.11002387     0.14400
H2154       H  0.81703661  0.03419485  0.38495900     0.14400
H2155       H  0.83414251  0.46827067  0.38149448     0.14400
H2156       H  0.77730527  0.03213484  0.99849271     0.27600
H2157       H  0.82152927  0.46383714  0.99534971     0.27600
C2158       C  0.82178537  0.09835784  0.08326989    -0.14900
C2159       C  0.79344017  0.08639821  0.07978526    -0.30100
H2160       H  0.83850847  0.09167238  0.06688455     0.14100
H2161       H  0.77657219  0.09063621  0.09673086     0.14700
C2162       C  0.90533040  0.16747056  0.07090031    -0.14900
C2163       C  0.89627423  0.17688146  0.09826026    -0.30100
H2164       H  0.89356993  0.14784299  0.05994632     0.14100
H2165       H  0.90616349  0.19826761  0.10795892     0.14700
C2166       C  0.90610283  0.07577426  0.18199899    -0.14900
C2167       C  0.89812513  0.08674134  0.15401072    -0.30100
H2168       H  0.89358612  0.08248665  0.20172218     0.14100
H2169       H  0.91079042  0.07846819  0.13486645     0.14700
C2170       C  0.59686900  0.19756716  0.06512793    -0.14900
C2171       C  0.61248928  0.17016115  0.06629053    -0.30100
H2172       H  0.59888239  0.21426512  0.08358187     0.14100
H2173       H  0.60776040  0.15257256  0.04899576     0.14700
C2174       C  0.68002272  0.08424959  0.06184352    -0.14900
C2175       C  0.69005725  0.09672488  0.08810544    -0.30100
H2176       H  0.66029336  0.09429448  0.05017654     0.14100
H2177       H  0.71141779  0.08866289  0.09821072     0.14700
C2178       C  0.60183533  0.09629385  0.13849277    -0.14900
C2179       C  0.59018650  0.08906405  0.16568414    -0.30100
H2180       H  0.59359529  0.08299107  0.11899818     0.14100
H2181       H  0.59680891  0.10245936  0.18560880     0.14700
C2182       C  0.57394970  0.32107015  0.10043735    -0.14900
C2183       C  0.57518575  0.29263035  0.08701217    -0.30100
H2184       H  0.55516586  0.33672212  0.09442940     0.14100
H2185       H  0.59501366  0.27771304  0.09020814     0.14700
C2186       C  0.64118817  0.40167029  0.08581244    -0.14900
C2187       C  0.66831842  0.40801452  0.07370947    -0.30100
H2188       H  0.62177560  0.41535054  0.07758590     0.14100
H2189       H  0.68802380  0.39400611  0.08021713     0.14700
C2190       C  0.56170191  0.41393580  0.15811516    -0.14900
C2191       C  0.58803046  0.40361441  0.16981141    -0.30100
H2192       H  0.55047947  0.40177062  0.13940963     0.14100
H2193       H  0.59765079  0.41462878  0.19004169     0.14700
C2194       C  0.92335901  0.30356586  0.08652499    -0.14900
C2195       C  0.92376985  0.33094663  0.10178435    -0.30100
H2196       H  0.90485453  0.28664923  0.08908436     0.14100
H2197       H  0.94092037  0.34873606  0.09647806     0.14700
C2198       C  0.84015683  0.39437935  0.09410098    -0.14900
C2199       C  0.85547720  0.40708140  0.07068398    -0.30100
H2200       H  0.81632761  0.39991156  0.09641284     0.14100
H2201       H  0.87854379  0.39971827  0.06692750     0.14700
C2202       C  0.92291006  0.41841408  0.19479768    -0.14900
C2203       C  0.91268157  0.41140662  0.16668584    -0.30100
H2204       H  0.91627959  0.40433324  0.21442727     0.14100
H2205       H  0.92065190  0.42618138  0.14797699     0.14700
C2206       C  0.58744160  0.09718847  0.34331868    -0.14900
C2207       C  0.56417637  0.08463924  0.35868801    -0.30100
H2208       H  0.58999690  0.09123732  0.31961361     0.14100
H2209       H  0.55988268  0.09195584  0.38161921     0.14700
C2210       C  0.65575126  0.08292552  0.41947037    -0.14900
C2211       C  0.68293665  0.07459273  0.43112479    -0.30100
H2212       H  0.63613334  0.06969247  0.42741993     0.14100
H2213       H  0.70348122  0.08694633  0.42455897     0.14700
C2214       C  0.57984825  0.19227012  0.42453883    -0.14900
C2215       C  0.59567275  0.16517592  0.42457786    -0.30100
H2216       H  0.58118203  0.20896096  0.40551807     0.14100
H2217       H  0.59122437  0.14746921  0.44222255     0.14700
C2218       C  0.57068370  0.29711573  0.43135219    -0.14900
C2219       C  0.57525369  0.32572674  0.41818720    -0.30100
H2220       H  0.58782046  0.27879290  0.43030439     0.14100
H2221       H  0.55911244  0.34447177  0.42234566     0.14700
C2222       C  0.59931918  0.41086689  0.36013215    -0.14900
C2223       C  0.57949475  0.41268801  0.33662775    -0.30100
H2224       H  0.59979893  0.42998089  0.37643608     0.14100
H2225       H  0.57600202  0.39204809  0.32243218     0.14700
C2226       C  0.65759375  0.38826916  0.43929826    -0.14900
C2227       C  0.68273612  0.40625396  0.43810211    -0.30100
H2228       H  0.64179315  0.39194592  0.45744247     0.14100
H2229       H  0.69691785  0.40567924  0.41830581     0.14700
C2230       C  0.82935605  0.08672789  0.41836990    -0.14900
C2231       C  0.85531454  0.10053167  0.40974600    -0.30100
H2232       H  0.80787580  0.09258633  0.40723669     0.14100
H2233       H  0.87621065  0.09242073  0.42085144     0.14700
C2234       C  0.91787128  0.08057389  0.34367539    -0.19600
C2235       C  0.90951825  0.10681771  0.32829867    -0.30100
H2236       H  0.90923136  0.07563463  0.36615166     0.14100
H2237       H  0.91559725  0.11020395  0.30469702     0.14700
C2238       C  0.91756208  0.18466640  0.40076619    -0.14900
C2239       C  0.92050719  0.21443211  0.41111315    -0.30100
H2240       H  0.93444844  0.16746295  0.40853278     0.14100
H2241       H  0.90341758  0.23223020  0.40580923     0.14700
C2242       C  0.84665969  0.40374949  0.39925484    -0.14900
C2243       C  0.86410628  0.42271024  0.41675397    -0.30100
H2244       H  0.82220861  0.40467087  0.40147980     0.14100
H2245       H  0.88852585  0.42265172  0.41533951     0.14700
C2246       C  0.91459874  0.32024611  0.40088547    -0.14900
C2247       C  0.94051696  0.33276211  0.41237051    -0.30100
H2248       H  0.90779755  0.29651750  0.40825391     0.14100
H2249       H  0.94890178  0.35513494  0.40310399     0.14700
C2250       C  0.92347166  0.40446965  0.33135640    -0.14900
C2251       C  0.92374718  0.42148116  0.30510002    -0.30100
H2252       H  0.94072714  0.40969458  0.34860690     0.14100
H2253       H  0.90551350  0.41873834  0.28834806     0.14700
C2254       C  0.83852503  0.32257370  0.31372607    -0.14900
C2255       C  0.80808554  0.32406789  0.30879879    -0.30100
H2256       H  0.85095376  0.30443817  0.30204353     0.14100
H2257       H  0.79502821  0.34263711  0.31889717     0.14700
C2258       C  0.80245427  0.20145637  0.33615401    -0.14900
C2259       C  0.82473999  0.18266638  0.32694701    -0.30100
H2260       H  0.80045593  0.20680397  0.36004296     0.14100
H2261       H  0.82636599  0.17896862  0.30267459     0.14700
C2262       C  0.66853737  0.31212112  0.35356996    -0.14900
C2263       C  0.67406768  0.31238208  0.32356257    -0.30100
H2264       H  0.68023379  0.29462751  0.36795034     0.14100
H2265       H  0.66154405  0.32793890  0.30804205     0.14700
C2266       C  0.84400824  0.31309017  0.18131638    -0.14900
C2267       C  0.81976444  0.32116115  0.19741288    -0.30100
H2268       H  0.85068219  0.28826456  0.18126407     0.14100
H2269       H  0.81193756  0.34559078  0.19615641     0.14700
C2270       C  0.66493769  0.19352969  0.32029983    -0.14900
C2271       C  0.67589655  0.17405767  0.34253145    -0.30100
H2272       H  0.64049300  0.19462846  0.31682943     0.14100
H2273       H  0.70021858  0.17156180  0.34596648     0.14700
C2274       C  0.66815796  0.32106508  0.17013041    -0.14900
C2275       C  0.66072910  0.30244284  0.19403885    -0.30100
H2276       H  0.69185719  0.32441065  0.16464355     0.14100
H2277       H  0.63702996  0.29797832  0.19884564     0.14700
C2278       C  0.79848674  0.19208154  0.17202316    -0.14900
C2279       C  0.81667478  0.16715885  0.17875295    -0.30100
H2280       H  0.79541849  0.19935033  0.14836608     0.14100
H2281       H  0.82035980  0.16018924  0.20241008     0.14700
C2282       C  0.69306497  0.18003989  0.18677360    -0.14900
C2283       C  0.67743636  0.18743381  0.16091391    -0.30100
H2284       H  0.69436431  0.15550011  0.19473712     0.14100
H2285       H  0.67530031  0.21242548  0.15454870     0.14700
O2286       O  0.71483429  0.20695062  0.71986963    -0.78600
O2287       O  0.79275003  0.20585673  0.77497886    -0.78700
O2288       O  0.78397183  0.24226803  0.67617045    -0.78700
O2289       O  0.72021292  0.21837184  0.78925725    -0.78600
O2290       O  0.79666671  0.20697696  0.71207001    -0.78700
O2291       O  0.67736512  0.22790432  0.76379855    -0.78700
O2292       O  0.77745555  0.23924238  0.80839389    -0.78600
O2293       O  0.72265986  0.23905964  0.68039351    -0.78700
C2294       C  0.71246452  0.21288908  0.69152602     1.11000
C2295       C  0.79087603  0.21382342  0.80243100     1.10900
C2296       C  0.79656722  0.21627444  0.68456647     1.11100
C2297       C  0.69124897  0.21352789  0.78537301     1.10900
O2298       O  0.70535764  0.28427793  0.77347770    -0.78600
O2299       O  0.82160790  0.26963504  0.71298389    -0.78700
O2300       O  0.72414078  0.30282759  0.70882138    -0.78700
O2301       O  0.77092047  0.29942123  0.77886254    -0.78600
O2302       O  0.81329091  0.27204582  0.77486172    -0.78700
O2303       O  0.68858767  0.26795240  0.71583827    -0.78700
O2304       O  0.72828098  0.27409792  0.81754378    -0.78600
O2305       O  0.78505019  0.30386713  0.70511681    -0.78700
Co2306     Co  0.71372678  0.24385599  0.74715146     1.51500
Co2307     Co  0.80271439  0.23891677  0.74367426     1.51700
Co2308     Co  0.75392430  0.27140801  0.69550408     1.51600
Co2309     Co  0.74610252  0.26006068  0.78125694     1.51500
O2310       O  0.75800432  0.25234947  0.73805502    -1.40600
C2311       C  0.70784008  0.28855457  0.80246506     1.11000
C2312       C  0.81242997  0.29638347  0.70264906     1.11100
C2313       C  0.69662472  0.29533243  0.70681667     1.11000
C2314       C  0.79932648  0.29693076  0.78287912     1.11000
C2315       C  0.85438164  0.33349557  0.84240833     0.88000
C2316       C  0.87587044  0.35811908  0.82794297    -0.52300
C2317       C  0.89155110  0.37603509  0.84883444     0.10900
C2318       C  0.88418416  0.36759916  0.88190565     0.21900
C2319       C  0.87459908  0.31404076  0.86450035    -0.53000
C2320       C  0.89018629  0.33155315  0.88532789     0.11000
C2321       C  0.83381336  0.35269904  0.86301476    -0.52500
C2322       C  0.84952875  0.37114435  0.88332746     0.11600
H2323       H  0.87866546  0.36047580  0.80361432     0.16100
H2324       H  0.89682675  0.38243303  0.89848289     0.01800
H2325       H  0.87647558  0.28830953  0.86376908     0.16400
H2326       H  0.80922969  0.35222703  0.86129755     0.16200
C2327       C  0.84357571  0.15425341  0.84766843     0.88000
C2328       C  0.82312489  0.13238946  0.86729041    -0.52300
C2329       C  0.83911413  0.11411636  0.88811551     0.10900
C2330       C  0.87334619  0.11931621  0.88738526     0.21900
C2331       C  0.86260014  0.17376323  0.87092763    -0.53000
C2332       C  0.87798149  0.15504674  0.89194402     0.11000
C2333       C  0.86667366  0.13173931  0.83381370    -0.52500
C2334       C  0.88197589  0.11333732  0.85455100     0.11600
H2335       H  0.79865889  0.13103405  0.86440622     0.16100
H2336       H  0.88624692  0.10452986  0.90431654     0.01800
H2337       H  0.86316328  0.19956375  0.87115840     0.16400
H2338       H  0.87056692  0.13032888  0.80962027     0.16200
C2339       C  0.65008723  0.32352409  0.85745095     0.88000
C2340       C  0.66603385  0.34927694  0.87671614    -0.52300
C2341       C  0.64638441  0.36902820  0.89064033     0.10900
C2342       C  0.61293851  0.36160447  0.88334411     0.21900
C2343       C  0.62820300  0.30646965  0.87952727    -0.53000
C2344       C  0.60840976  0.32670629  0.89280762     0.11000
C2345       C  0.62898869  0.34166462  0.83495724    -0.52500
C2346       C  0.60990682  0.36200030  0.84848662     0.11600
H2347       H  0.69046070  0.35067174  0.87994046     0.16100
H2348       H  0.59704094  0.37766459  0.89464936     0.01800
H2349       H  0.62781804  0.28090482  0.88331422     0.16400
H2350       H  0.62914876  0.33877055  0.81051182     0.16200
C2351       C  0.66622044  0.15451091  0.84959214     0.88000
C2352       C  0.64554695  0.13044378  0.83291567    -0.52300
C2353       C  0.62800641  0.11258413  0.85189726     0.10900
C2354       C  0.63338079  0.11975120  0.88569938     0.21900
C2355       C  0.64457953  0.17387977  0.86939593    -0.53000
C2356       C  0.62749910  0.15538572  0.88848659     0.11000
C2357       C  0.68492304  0.13382180  0.87238133    -0.52500
C2358       C  0.66749622  0.11548572  0.89110008     0.11600
H2359       H  0.64471213  0.12792979  0.80841643     0.16100
H2360       H  0.61974589  0.10475355  0.90132859     0.01800
H2361       H  0.64362928  0.19967203  0.86892516     0.16400
H2362       H  0.70952739  0.13370224  0.87357356     0.16200
N2363       N  0.49993109  0.43608092  0.81786536    -0.35100
N2364       N  0.94847527  0.98647946  0.84667683    -0.55700
N2365       N  0.50506214  0.04543012  0.84246052    -0.35100
N2366       N  0.55322560  0.99769571  0.84438578    -0.55700
C2367       C  0.97477511  0.42867813  0.81560123     0.28500
C2368       C  0.52432663  0.41909830  0.82777704     0.28500
C2369       C  0.96435271  0.05219175  0.86473302     0.28500
C2370       C  0.52979100  0.06432726  0.83991297     0.28500
C2371       C  0.93450289  0.46982040  0.80714591     0.37100
C2372       C  0.92908788  0.01120972  0.84435796     0.37100
C2373       C  0.56337105  0.46101152  0.82020835     0.37100
C2374       C  0.56932759  0.02372715  0.85273635     0.37100
C2375       C  0.98394527  0.39857623  0.82526384    -0.20400
C2376       C  0.51477979  0.38984581  0.83915047    -0.20400
C2377       C  0.97052800  0.07985438  0.88054567    -0.20400
C2378       C  0.52072254  0.09508513  0.83251793    -0.20400
C2379       C  0.90459000  0.47880771  0.80218970    -0.21500
C2380       C  0.90156082  0.00152155  0.83183815    -0.21500
C2381       C  0.59296353  0.47091925  0.81564845    -0.21500
C2382       C  0.59628076  0.01465558  0.86715297    -0.21500
C2383       C  0.94411059  0.43787104  0.81081828    -0.16800
C2384       C  0.55488183  0.42953807  0.82723759    -0.16800
C2385       C  0.55983437  0.05557006  0.84802623    -0.16800
C2386       C  0.93508264  0.04176190  0.85569520    -0.16800
H2387       H  0.96991155  0.37790071  0.82967960     0.16100
H2388       H  0.52860992  0.37096978  0.84892075     0.16100
H2389       H  0.95446875  0.09678239  0.88884248     0.16100
H2390       H  0.53504798  0.11588711  0.82975899     0.16100
H2391       H  0.88519782  0.46348154  0.79793922     0.14400
H2392       H  0.88145893  0.01571924  0.82779306     0.14400
H2393       H  0.61267978  0.45609392  0.81321450     0.14400
H2394       H  0.61377374  0.02993771  0.87668011     0.14400
H2395       H  0.50028898  0.45783772  0.80625912     0.27600
H2396       H  0.50487799  0.02275941  0.85203531     0.27600
C2397       C  0.87140821  0.32904336  0.64498603     0.88000
C2398       C  0.85063201  0.34671958  0.62174023    -0.52300
C2399       C  0.86593866  0.36675437  0.60271213     0.10900
C2400       C  0.90045617  0.36655717  0.60797411     0.21900
C2401       C  0.89448574  0.31172808  0.62514810    -0.53000
C2402       C  0.90967230  0.33166824  0.60574558     0.11000
C2403       C  0.88997231  0.35555557  0.66094726    -0.52500
C2404       C  0.90516663  0.37514231  0.64130956     0.11600
H2405       H  0.82610808  0.34434016  0.62102752     0.16100
H2406       H  0.91295569  0.38245064  0.59213002     0.01800
H2407       H  0.89865617  0.28633341  0.62665149     0.16400
H2408       H  0.89134042  0.35811040  0.68541888     0.16200
C2409       C  0.63199611  0.33149226  0.65707788     0.88000
C2410       C  0.61371838  0.35309505  0.67749428    -0.52300
C2411       C  0.59579567  0.37418740  0.66176292     0.10900
C2412       C  0.59700721  0.37097868  0.62707929     0.21900
C2413       C  0.60817609  0.31510695  0.63660773    -0.53000
C2414       C  0.58979259  0.33581463  0.62071725     0.11000
C2415       C  0.64916810  0.35435763  0.63551914    -0.52500
C2416       C  0.63061034  0.37523411  0.61983856     0.11600
H2417       H  0.61531015  0.35222181  0.70213602     0.16100
H2418       H  0.58184941  0.38768229  0.61426860     0.01800
H2419       H  0.60656594  0.28947714  0.63476645     0.16400
H2420       H  0.67356599  0.35387502  0.63320117     0.16200
N2421       N  0.53407038  0.28817084  0.50762856    -0.35100
N2422       N  0.48439918  0.29372954  0.55083526    -0.55700
N2423       N  0.96604673  0.29882873  0.48960424    -0.35100
N2424       N  0.50153860  0.29458230  0.95926495    -0.55700
C2425       C  0.54978569  0.29399469  0.53374037     0.28500
C2426       C  0.56465960  0.28710205  0.98252302     0.28500
C2427       C  0.94876152  0.30091064  0.51453479     0.28500
C2428       C  0.93693865  0.31237568  0.98286387     0.28500
C2429       C  0.50772176  0.28623410  0.57001397     0.37100
C2430       C  0.98788634  0.28600849  0.55407549     0.37100
C2431       C  0.52507654  0.28765893  0.94140993     0.37100
C2432       C  0.97520616  0.30518299  0.94236996     0.37100
C2433       C  0.57935149  0.30257916  0.52710654    -0.20400
C2434       C  0.59359048  0.29472883  0.99309889    -0.20400
C2435       C  0.92097760  0.31401710  0.50617508    -0.20400
C2436       C  0.90891006  0.32237382  0.99253364    -0.20400
C2437       C  0.49697717  0.27813787  0.59841170    -0.21500
C2438       C  0.99674568  0.27556597  0.58293598    -0.21500
C2439       C  0.51533522  0.28652440  0.91130656    -0.21500
C2440       C  0.98315289  0.30290756  0.91221569    -0.21500
C2441       C  0.53856186  0.29104259  0.56348493    -0.16800
C2442       C  0.55580193  0.28656723  0.95142991    -0.16800
C2443       C  0.94632060  0.31443453  0.95232708    -0.16800
C2444       C  0.95754852  0.29228553  0.54480508    -0.16800
H2445       H  0.59755407  0.30856033  0.54294375     0.16100
H2446       H  0.61322541  0.30052434  0.97978139     0.16100
H2447       H  0.90223146  0.31886302  0.52075395     0.16100
H2448       H  0.89064155  0.33257265  0.97884615     0.16100
H2449       H  0.51019842  0.27190502  0.61863100     0.14400
H2450       H  0.98223767  0.26816925  0.60125100     0.14400
H2451       H  0.52892040  0.28219927  0.89169566     0.14400
H2452       H  0.96879313  0.30596899  0.89216718     0.14400
H2453       H  0.51226278  0.27875751  0.50582116     0.27600
H2454       H  0.98696761  0.28775630  0.48868416     0.27600
C2455       C  0.65375564  0.15195359  0.65736886     0.88000
C2456       C  0.67207062  0.13027225  0.63699629    -0.52300
C2457       C  0.65475968  0.11335042  0.61685547     0.10900
C2458       C  0.62060139  0.12003148  0.61852075     0.21900
C2459       C  0.63495773  0.17303071  0.63507016    -0.53000
C2460       C  0.61726643  0.15646195  0.61475388     0.11000
C2461       C  0.63000831  0.12960531  0.67221636    -0.52500
C2462       C  0.61266460  0.11284026  0.65162563     0.11600
H2463       H  0.69657860  0.12823451  0.63861678     0.16100
H2464       H  0.60700143  0.10604675  0.60200565     0.01800
H2465       H  0.63524147  0.19883484  0.63571700     0.16400
H2466       H  0.62771381  0.12690047  0.69659588     0.16200
N2467       N  0.49689105  0.45698771  0.69002218    -0.35100
N2468       N  0.95603025  0.00219270  0.67695734    -0.55700
N2469       N  0.49507355  0.05071512  0.69236750    -0.35100
N2470       N  0.54076590  0.00254612  0.68385300    -0.55700
C2471       C  0.97607453  0.43870170  0.68283210     0.28500
C2472       C  0.51967993  0.44053158  0.67761263     0.28500
C2473       C  0.97988643  0.06937028  0.67858657     0.28500
C2474       C  0.51965436  0.06984626  0.68860640     0.28500
C2475       C  0.93450750  0.47847524  0.67905446     0.37100
C2476       C  0.93855161  0.02839463  0.67321280     0.37100
C2477       C  0.56106646  0.48101157  0.68288840     0.37100
C2478       C  0.55954685  0.02789042  0.68747327     0.37100
C2479       C  0.98665485  0.40813944  0.68835006    -0.20400
C2480       C  0.50835329  0.41212922  0.66632889    -0.20400
C2481       C  0.99010985  0.09932260  0.68694612    -0.20400
C2482       C  0.51014113  0.10087158  0.68355298    -0.20400
C2483       C  0.90490371  0.48743944  0.67248588    -0.21500
C2484       C  0.90872847  0.01935063  0.66721843    -0.21500
C2485       C  0.59133472  0.48972191  0.68575191    -0.21500
C2486       C  0.58945607  0.01804046  0.68746388    -0.21500
C2487       C  0.94503456  0.44671539  0.67949630    -0.16800
C2488       C  0.55057907  0.44993613  0.67661005    -0.16800
C2489       C  0.55039966  0.06014588  0.68821048    -0.16800
C2490       C  0.94888222  0.06040038  0.67522299    -0.16800
H2491       H  0.97338719  0.38694113  0.69299427     0.16100
H2492       H  0.52042763  0.39384538  0.65471972     0.16100
H2493       H  0.97648474  0.11939080  0.69312600     0.16100
H2494       H  0.52412167  0.12168831  0.67947955     0.16100
H2495       H  0.88576446  0.47212986  0.66712138     0.14400
H2496       H  0.88943305  0.03469132  0.66304763     0.14400
H2497       H  0.61086968  0.47434444  0.68519889     0.14400
H2498       H  0.60968006  0.03260315  0.68965681     0.14400
H2499       H  0.49915638  0.47776091  0.70232240     0.27600
H2500       H  0.49528877  0.02694294  0.69876114     0.27600
N2501       N  0.68244592  0.44290708  0.51428155    -0.35100
N2502       N  0.71609036  0.99418702  0.95056325    -0.55700
N2503       N  0.67863612  0.03744805  0.50978994    -0.35100
N2504       N  0.67145903  0.98536853  0.55424456    -0.55700
C2505       C  0.68608536  0.42284346  0.97125905     0.28500
C2506       C  0.68540489  0.42517187  0.54012644     0.28500
C2507       C  0.71253635  0.06212816  0.96795357     0.28500
C2508       C  0.66717725  0.05356260  0.53327823     0.28500
C2509       C  0.69036510  0.46372595  0.92971252     0.37100
C2510       C  0.71187920  0.01849927  0.93033795     0.37100
C2511       C  0.66931920  0.46596034  0.57645656     0.37100
C2512       C  0.67046404  0.01049370  0.57296717     0.37100
C2513       C  0.69058481  0.39207818  0.98208326    -0.20400
C2514       C  0.69590353  0.39522240  0.53321822    -0.20400
C2515       C  0.71754857  0.09362969  0.97560607    -0.20400
C2516       C  0.65820193  0.08354117  0.52318130    -0.20400
C2517       C  0.69201415  0.47284456  0.89943641    -0.21500
C2518       C  0.70744749  0.00670625  0.90138990    -0.21500
C2519       C  0.65652671  0.47557583  0.60318674    -0.21500
C2520       C  0.67349263  0.00030623  0.60294053    -0.21500
C2521       C  0.68697814  0.43194021  0.94017993    -0.16800
C2522       C  0.67529854  0.43404654  0.56896991    -0.16800
C2523       C  0.66501095  0.04232152  0.56371110    -0.16800
C2524       C  0.71056447  0.05110293  0.93778504    -0.16800
H2525       H  0.69615175  0.37141733  0.96906298     0.16100
H2526       H  0.69973753  0.37533214  0.54871508     0.16100
H2527       H  0.72304869  0.11327012  0.96047629     0.16100
H2528       H  0.64806094  0.10209404  0.53619131     0.16100
H2529       H  0.69122815  0.45768954  0.87982264     0.14400
H2530       H  0.70330405  0.02006866  0.88051486     0.14400
H2531       H  0.64923903  0.46081413  0.62203639     0.14400
H2532       H  0.67332161  0.01473193  0.62304430     0.14400
H2533       H  0.67100261  0.46427960  0.51191025     0.27600
H2534       H  0.68934551  0.01557793  0.51114377     0.27600
N2535       N  0.49692624  0.18349074  0.54613100    -0.35100
N2536       N  0.95524871  0.21528687  0.48898076    -0.55700
N2537       N  0.50988602  0.20227236  0.94212521    -0.35100
N2538       N  0.54475483  0.18888907  0.50151948    -0.55700
C2539       C  0.97793256  0.19785476  0.55174615     0.28500
C2540       C  0.52071556  0.17163770  0.56276671     0.28500
C2541       C  0.96710794  0.19151990  0.93877793     0.28500
C2542       C  0.53369539  0.19532991  0.92444375     0.28500
C2543       C  0.93739469  0.21204673  0.51339758     0.37100
C2544       C  0.92553715  0.20015459  0.97451940     0.37100
C2545       C  0.56235164  0.18505623  0.52698013     0.37100
C2546       C  0.57573330  0.20503164  0.96228325     0.37100
C2547       C  0.98800759  0.18251138  0.57821227    -0.20400
C2548       C  0.50994844  0.15697048  0.58889532    -0.20400
C2549       C  0.97755055  0.17621365  0.91349525    -0.20400
C2550       C  0.52287119  0.18287117  0.89730941    -0.20400
C2551       C  0.90744808  0.21758039  0.50490931    -0.21500
C2552       C  0.89541664  0.20433721  0.98160474    -0.21500
C2553       C  0.59255777  0.18955619  0.51999617    -0.21500
C2554       C  0.60571287  0.21163090  0.97006231    -0.21500
C2555       C  0.94701711  0.20028040  0.54229939    -0.16800
C2556       C  0.55191128  0.17361345  0.55540803    -0.16800
C2557       C  0.56498466  0.19873044  0.93235316    -0.16800
C2558       C  0.93618945  0.19661982  0.94468559    -0.16800
H2559       H  0.97448322  0.17038893  0.59505356     0.16100
H2560       H  0.52300221  0.14546998  0.60701734     0.16100
H2561       H  0.96416144  0.16633461  0.89497931     0.16100
H2562       H  0.53601428  0.17473201  0.87856482     0.16100
H2563       H  0.88782724  0.21592747  0.51913433     0.14400
H2564       H  0.87650730  0.20851212  0.96597830     0.14400
H2565       H  0.61223129  0.18698659  0.53490320     0.14400
H2566       H  0.62446045  0.21488531  0.95490813     0.14400
H2567       H  0.49805988  0.19774512  0.52670148     0.27600
H2568       H  0.51099131  0.21386416  0.96275287     0.27600
C2569       C  0.85812370  0.16528250  0.64787615     0.88000
C2570       C  0.88200454  0.14253606  0.66224953    -0.52300
C2571       C  0.90033526  0.12900468  0.64149495     0.10900
C2572       C  0.89297119  0.13939260  0.60860826     0.21900
C2573       C  0.87670734  0.18956253  0.62923781    -0.53000
C2574       C  0.89483208  0.17600432  0.60837405     0.11000
C2575       C  0.84085831  0.14521603  0.62433084    -0.52500
C2576       C  0.85911444  0.13134067  0.60405616     0.11600
H2577       H  0.88421982  0.13781868  0.68649799     0.16100
H2578       H  0.90787578  0.12812677  0.59202745     0.01800
H2579       H  0.87565620  0.21509052  0.63235369     0.16400
H2580       H  0.81649667  0.14131942  0.62443185     0.16200
N2581       N  0.83797142  0.05227357  0.49809260    -0.35100
N2582       N  0.84062429  0.49596223  0.54223922    -0.55700
N2583       N  0.84511064  0.44818306  0.49570859    -0.35100
N2584       N  0.82767937  0.49622372  0.94975005    -0.55700
C2585       C  0.84874185  0.06992402  0.52145498     0.28500
C2586       C  0.79112146  0.07400688  0.97451463     0.28500
C2587       C  0.85518065  0.43159081  0.52054693     0.28500
C2588       C  0.84150210  0.42848907  0.96787338     0.28500
C2589       C  0.85019644  0.02769917  0.56220369     0.37100
C2590       C  0.84079154  0.46966087  0.56026002     0.37100
C2591       C  0.79188740  0.03176593  0.93503066     0.37100
C2592       C  0.82750949  0.47164798  0.93031861     0.37100
C2593       C  0.85530310  0.10044540  0.51098498    -0.20400
C2594       C  0.79732539  0.10474766  0.98386909    -0.20400
C2595       C  0.87193424  0.40576064  0.51154292    -0.20400
C2596       C  0.85532114  0.39972786  0.97511198    -0.20400
C2597       C  0.85068950  0.01811699  0.59249619    -0.21500
C2598       C  0.83563388  0.47773999  0.59008352    -0.21500
C2599       C  0.79220774  0.02199420  0.90512161    -0.21500
C2600       C  0.82031861  0.48241167  0.90113052    -0.21500
C2601       C  0.85264329  0.05959321  0.55206842    -0.16800
C2602       C  0.79190508  0.06405865  0.94390274    -0.16800
C2603       C  0.83680976  0.44028442  0.93772756    -0.16800
C2604       C  0.85028110  0.43941441  0.55116764    -0.16800
H2605       H  0.86449732  0.12017571  0.52376241     0.16100
H2606       H  0.80273633  0.12524119  0.96977464     0.16100
H2607       H  0.88325962  0.38812862  0.52585779     0.16100
H2608       H  0.86416493  0.38253617  0.95970740     0.16100
H2609       H  0.85144769  0.03305728  0.61226749     0.14400
H2610       H  0.83547269  0.46208250  0.60984256     0.14400
H2611       H  0.79000687  0.03671267  0.88480350     0.14400
H2612       H  0.81903202  0.46858985  0.88063521     0.14400
H2613       H  0.82892825  0.02945974  0.49969466     0.27600
H2614       H  0.83001434  0.46705779  0.49555424     0.27600
C2615       C  0.84731797  0.10862685  0.58153850    -0.14900
C2616       C  0.86341459  0.08297866  0.57471268    -0.30100
H2617       H  0.82483627  0.11212158  0.57147223     0.14100
H2618       H  0.88450763  0.07786888  0.58702054     0.14700
C2619       C  0.92361160  0.18438338  0.56132804    -0.14900
C2620       C  0.91561949  0.19479201  0.58869148    -0.30100
H2621       H  0.91261035  0.16341793  0.55198937     0.14100
H2622       H  0.92477316  0.21718987  0.59689666     0.14700
C2623       C  0.92570704  0.08607667  0.67269446    -0.14900
C2624       C  0.92513385  0.10609066  0.64853891    -0.30100
H2625       H  0.90724838  0.08589935  0.68854308     0.14100
H2626       H  0.94237626  0.10365942  0.63155154     0.14700
C2627       C  0.57401570  0.15759212  0.57692714    -0.14900
C2628       C  0.59641016  0.17286768  0.59226255    -0.30100
H2629       H  0.56980040  0.13260155  0.58151548     0.14100
H2630       H  0.59885895  0.19841537  0.58898661     0.14700
C2631       C  0.65327713  0.06419541  0.58690764    -0.14900
C2632       C  0.66799472  0.09084891  0.59529378    -0.30100
H2633       H  0.63234382  0.05742459  0.59785084     0.14100
H2634       H  0.69026759  0.09604388  0.58639858     0.14700
C2635       C  0.58922008  0.08832790  0.65864488    -0.14900
C2636       C  0.57427519  0.08539843  0.68482078    -0.30100
H2637       H  0.58312719  0.07218198  0.64045150     0.14100
H2638       H  0.57786678  0.10246587  0.70277596     0.14700
C2639       C  0.56601101  0.32665470  0.59798338    -0.14900
C2640       C  0.56007845  0.29666773  0.58928404    -0.30100
H2641       H  0.55365458  0.34591084  0.58665399     0.14100
H2642       H  0.57189976  0.27645393  0.59934637     0.14700
C2643       C  0.64017673  0.40050394  0.59796746    -0.14900
C2644       C  0.66897922  0.40823919  0.59163109    -0.30100
H2645       H  0.62216008  0.41404248  0.58666865     0.14100
H2646       H  0.68783020  0.39502115  0.60162314     0.14700
C2647       C  0.57277594  0.42710643  0.66459802    -0.14900
C2648       C  0.57711782  0.39798908  0.67688239    -0.30100
H2649       H  0.58552109  0.43455906  0.64487795     0.14100
H2650       H  0.56642717  0.39142511  0.69806746     0.14700
C2651       C  0.93465665  0.29554012  0.56902890    -0.14900
C2652       C  0.93394940  0.32266107  0.58474642    -0.30100
H2653       H  0.91701585  0.27762307  0.57150424     0.14100
H2654       H  0.95059528  0.34101823  0.57954569     0.14700
C2655       C  0.85093959  0.38801756  0.57999509    -0.14900
C2656       C  0.86183668  0.41752713  0.57544124    -0.30100
H2657       H  0.83119816  0.37968734  0.56716644     0.14100
H2658       H  0.87988908  0.42650964  0.59025089     0.14700
C2659       C  0.92281347  0.42029110  0.67398467    -0.14900
C2660       C  0.92591987  0.40157426  0.64981204    -0.30100
H2661       H  0.90339863  0.41749708  0.68848910     0.14100
H2662       H  0.94403288  0.40696419  0.63420627     0.14700
C2663       C  0.60647236  0.08788334  0.84113633    -0.14900
C2664       C  0.58108651  0.08160148  0.85632024    -0.30100
H2665       H  0.61134926  0.07486686  0.82075695     0.14100
H2666       H  0.57481802  0.09656372  0.87498236     0.14700
C2667       C  0.67887250  0.09336465  0.91517324    -0.14900
C2668       C  0.70359580  0.07501583  0.91313395    -0.30100
H2669       H  0.66443528  0.08997307  0.93462344     0.14100
H2670       H  0.71678287  0.07551768  0.89263718     0.14700
C2671       C  0.58785253  0.19199968  0.90856293    -0.14900
C2672       C  0.60646568  0.16683624  0.91186722    -0.30100
H2673       H  0.58720196  0.20557984  0.88737006     0.14100
H2674       H  0.60435879  0.15185836  0.93206670     0.14700
C2675       C  0.58013070  0.29015434  0.92850564    -0.14900
C2676       C  0.58313460  0.31786949  0.91317834    -0.30100
H2677       H  0.59732923  0.27194473  0.92726507     0.14100
H2678       H  0.56661693  0.33632441  0.91705427     0.14700
C2679       C  0.58754566  0.38159518  0.83115372    -0.14900
C2680       C  0.57871288  0.40950968  0.84190539    -0.30100
H2681       H  0.57840050  0.37324517  0.80958157     0.14100
H2682       H  0.59002175  0.41914933  0.86193174     0.14700
C2683       C  0.65473288  0.39380347  0.91306174    -0.14900
C2684       C  0.68250546  0.40659515  0.91720829    -0.30100
H2685       H  0.63648050  0.40254487  0.92672326     0.14100
H2686       H  0.70112494  0.40023336  0.90292021     0.14700
C2687       C  0.79888927  0.08867575  0.92021832    -0.14900
C2688       C  0.82693611  0.08957472  0.90912671    -0.30100
H2689       H  0.78256686  0.10713772  0.91445984     0.14100
H2690       H  0.84309492  0.07197377  0.91767058     0.14700
C2691       C  0.90904842  0.06283188  0.86109184    -0.19600
C2692       C  0.90552730  0.09060390  0.84608830    -0.30100
H2693       H  0.89283100  0.05532336  0.87798778     0.14100
H2694       H  0.92039687  0.09685637  0.82758109     0.14700
C2695       C  0.89633625  0.16593902  0.91853421    -0.14900
C2696       C  0.91379857  0.19218559  0.91905786    -0.30100
H2697       H  0.89813349  0.14938906  0.93771701     0.14100
H2698       H  0.91506230  0.20753520  0.89904817     0.14700
C2699       C  0.83470411  0.39250835  0.90486851    -0.14900
C2700       C  0.84746086  0.42050639  0.91239627    -0.30100
H2701       H  0.81369258  0.38491479  0.91518194     0.14100
H2702       H  0.86716935  0.42912131  0.90035277     0.14700
C2703       C  0.91107099  0.31573524  0.90777461    -0.14900
C2704       C  0.92562893  0.33106200  0.93022920    -0.30100
H2705       H  0.91468190  0.29030998  0.90576732     0.14100
H2706       H  0.92140821  0.35597633  0.93409582     0.14700
C2707       C  0.91449847  0.40092763  0.84203403    -0.14900
C2708       C  0.92019241  0.41297275  0.81427602    -0.30100
H2709       H  0.92759598  0.40998939  0.86127574     0.14100
H2710       H  0.90676405  0.40605164  0.79450250     0.14700
C2711       C  0.83817378  0.31199196  0.82008879    -0.14900
C2712       C  0.81587245  0.32124318  0.80067997    -0.30100
H2713       H  0.84414011  0.28693366  0.82096245     0.14100
H2714       H  0.80779809  0.34557350  0.80060298     0.14700
C2715       C  0.80532877  0.19485908  0.82767412    -0.14900
C2716       C  0.82688720  0.17325608  0.82272265    -0.30100
H2717       H  0.79948255  0.20007135  0.85086336     0.14100
H2718       H  0.83297025  0.16912059  0.79936434     0.14700
C2719       C  0.67194461  0.30158793  0.84214132    -0.14900
C2720       C  0.68784750  0.31083411  0.81769283    -0.30100
H2721       H  0.67390369  0.27720763  0.85053363     0.14100
H2722       H  0.68458069  0.33432407  0.80759299     0.14700
C2723       C  0.85440657  0.30717517  0.66685972    -0.14900
C2724       C  0.83248716  0.31793744  0.68489422    -0.30100
H2725       H  0.85926184  0.28188045  0.66689593     0.14100
H2726       H  0.82666026  0.34298774  0.68358280     0.14700
C2727       C  0.67369836  0.19177080  0.80530169    -0.14900
C2728       C  0.68580876  0.17477027  0.82867806    -0.30100
H2729       H  0.64934794  0.19053508  0.80115154     0.14100
H2730       H  0.71017836  0.17546258  0.83279887     0.14700
C2731       C  0.65195373  0.30818404  0.67463223    -0.14900
C2732       C  0.67511091  0.31794753  0.69251221    -0.30100
H2733       H  0.64795157  0.28284015  0.67191846     0.14100
H2734       H  0.68023102  0.34319574  0.69393653     0.14700
C2735       C  0.81434729  0.19902013  0.66221381    -0.14900
C2736       C  0.83752868  0.17990935  0.67072679    -0.30100
H2737       H  0.81047478  0.20459786  0.63826222     0.14100
H2738       H  0.84201215  0.17504257  0.69471491     0.14700
C2739       C  0.69538328  0.19115130  0.67078037    -0.14900
C2740       C  0.67353877  0.17063195  0.67995160    -0.30100
H2741       H  0.69872560  0.19441979  0.64657009     0.14100
H2742       H  0.66925716  0.16792354  0.70403972     0.14700
O2743       O  0.70933377  0.69698735  0.22030180    -0.78600
O2744       O  0.78068532  0.69542579  0.27505245    -0.78700
O2745       O  0.78083038  0.71487713  0.20715477    -0.78700
O2746       O  0.71425839  0.72357571  0.32135651    -0.78600
O2747       O  0.82164447  0.72172593  0.23604484    -0.78700
O2748       O  0.70546713  0.69143838  0.28302898    -0.78700
O2749       O  0.77610268  0.72310264  0.31682438    -0.78600
O2750       O  0.72359101  0.73393155  0.18823605    -0.78700
C2751       C  0.71087416  0.70740592  0.19323617     1.11000
C2752       C  0.78528311  0.69840596  0.30333914     1.10900
C2753       C  0.80934573  0.70932324  0.21301435     1.11100
C2754       C  0.70459409  0.69716817  0.31109434     1.10900
O2755       O  0.67694257  0.75330568  0.28472718    -0.78600
O2756       O  0.79363105  0.77862604  0.22876386    -0.78700
O2757       O  0.72581807  0.79169419  0.21890444    -0.78700
O2758       O  0.77377551  0.78961032  0.29459658    -0.78600
O2759       O  0.80883420  0.75608440  0.28367462    -0.78700
O2760       O  0.68483974  0.76109875  0.22337647    -0.78700
O2761       O  0.71216035  0.78789783  0.29827371    -0.78600
O2762       O  0.77262323  0.77462173  0.18302135    -0.78700
Co2763     Co  0.69727058  0.72617208  0.25308684     1.51500
Co2764     Co  0.78414780  0.73524254  0.25104084     1.51700
Co2765     Co  0.75323956  0.75473941  0.21683102     1.51600
Co2766     Co  0.74406403  0.75580372  0.30453880     1.51500
O2767       O  0.74045157  0.74294911  0.25974771    -1.40600
C2768       C  0.68475970  0.77902378  0.29783129     1.11000
C2769       C  0.79175434  0.78796106  0.20071094     1.11100
C2770       C  0.69748102  0.78708994  0.21495122     1.11000
C2771       C  0.80138525  0.78230525  0.29451404     1.11000
C2772       C  0.84061386  0.84095681  0.34837504     0.88000
C2773       C  0.86440303  0.86150063  0.33186874    -0.52300
C2774       C  0.88531012  0.87503870  0.35122309     0.10900
C2775       C  0.88039548  0.86696385  0.38477361     0.21900
C2776       C  0.85883210  0.81680049  0.36792195    -0.53000
C2777       C  0.87999074  0.83034898  0.38668543     0.11000
C2778       C  0.82667925  0.86314900  0.37138762    -0.52500
C2779       C  0.84752560  0.87702816  0.39022559     0.11600
H2780       H  0.86470124  0.86480229  0.30738213     0.16100
H2781       H  0.89709883  0.87831568  0.40048889     0.01800
H2782       H  0.85548588  0.79122500  0.36677897     0.16400
H2783       H  0.80256785  0.86791773  0.37241618     0.16200
C2784       C  0.85148321  0.66427200  0.35293741     0.88000
C2785       C  0.83942333  0.63641058  0.37236636    -0.52300
C2786       C  0.86177377  0.61724049  0.38434745     0.10900
C2787       C  0.89379899  0.62779527  0.37586559     0.21900
C2788       C  0.87431772  0.68169965  0.37404557    -0.53000
C2789       C  0.89664946  0.66246212  0.38597418     0.11000
C2790       C  0.87129391  0.64877637  0.32888679    -0.52500
C2791       C  0.89315058  0.62916421  0.34102378     0.11600
H2792       H  0.81545215  0.63226476  0.37580625     0.16100
H2793       H  0.91188856  0.61239867  0.38593992     0.01800
H2794       H  0.87301391  0.70690446  0.37867925     0.16400
H2795       H  0.86776804  0.65229615  0.30458494     0.16200
C2796       C  0.64753336  0.83784138  0.35427867     0.88000
C2797       C  0.66354037  0.86171890  0.37588939    -0.52300
C2798       C  0.64401981  0.88015537  0.39149799     0.10900
C2799       C  0.61064346  0.87284477  0.38427235     0.21900
C2800       C  0.62600254  0.81846340  0.37496974    -0.53000
C2801       C  0.60647727  0.83712875  0.39056227     0.11000
C2802       C  0.62633469  0.85852297  0.33391928    -0.52500
C2803       C  0.60712132  0.87702443  0.34969505     0.11600
H2804       H  0.68799163  0.86422603  0.37793953     0.16100
H2805       H  0.59489418  0.88732700  0.39746731     0.01800
H2806       H  0.62584256  0.79268227  0.37644907     0.16400
H2807       H  0.62671316  0.85870202  0.30928085     0.16200
C2808       C  0.65084453  0.66160931  0.37152594     0.88000
C2809       C  0.62893778  0.64343919  0.35023013    -0.52300
C2810       C  0.60943601  0.62370802  0.36506909     0.10900
C2811       C  0.61274586  0.62486421  0.39988871     0.21900
C2812       C  0.62980840  0.67947228  0.39294191    -0.53000
C2813       C  0.60971500  0.66010382  0.40772372     0.11000
C2814       C  0.66618690  0.63572081  0.39186709    -0.52500
C2815       C  0.64595478  0.61668939  0.40695932     0.11600
H2816       H  0.62922892  0.64549788  0.32562887     0.16100
H2817       H  0.59641534  0.60926123  0.41201059     0.01800
H2818       H  0.63101385  0.70496865  0.39625796     0.16400
H2819       H  0.69057143  0.63363713  0.39497997     0.16200
N2820       N  0.49645963  0.95093696  0.32303562    -0.35100
N2821       N  0.95490048  0.50524012  0.30527181    -0.55700
N2822       N  0.50218040  0.54787366  0.33509431    -0.35100
N2823       N  0.54780526  0.49605222  0.33793017    -0.55700
C2824       C  0.96270722  0.93371405  0.31329742     0.28500
C2825       C  0.52095892  0.93408723  0.33290468     0.28500
C2826       C  0.97630706  0.57163967  0.32015869     0.28500
C2827       C  0.52665082  0.56302086  0.34732283     0.28500
C2828       C  0.92383653  0.97450952  0.32240185     0.37100
C2829       C  0.93634713  0.53033273  0.30879374     0.37100
C2830       C  0.55846593  0.97879370  0.33607454     0.37100
C2831       C  0.56597475  0.52206143  0.33765023     0.37100
C2832       C  0.97154475  0.90460287  0.30237711    -0.20400
C2833       C  0.51223701  0.90294970  0.33916951    -0.20400
C2834       C  0.98578910  0.59838177  0.33590162    -0.20400
C2835       C  0.51728003  0.59056855  0.36118357    -0.20400
C2836       C  0.89552332  0.98379519  0.33175199    -0.21500
C2837       C  0.90635574  0.52033927  0.30666043    -0.21500
C2838       C  0.58786877  0.99033700  0.33855537    -0.21500
C2839       C  0.59548188  0.51336592  0.33176212    -0.21500
C2840       C  0.93229578  0.94284384  0.31714261    -0.16800
C2841       C  0.55080183  0.94612771  0.33731366    -0.16800
C2842       C  0.55721604  0.55281710  0.34633141    -0.16800
C2843       C  0.94561341  0.56118486  0.31787777    -0.16800
H2844       H  0.95702842  0.88600094  0.29335784     0.16100
H2845       H  0.52622777  0.88358470  0.34765736     0.16100
H2846       H  0.97193273  0.61514637  0.34759099     0.16100
H2847       H  0.53112834  0.60764248  0.37341105     0.16100
H2848       H  0.87592123  0.96887930  0.33592400     0.14400
H2849       H  0.88627641  0.53457763  0.30923794     0.14400
H2850       H  0.60863859  0.97678876  0.33983412     0.14400
H2851       H  0.61523086  0.52873564  0.33082379     0.14400
H2852       H  0.49654954  0.97414196  0.31462370     0.27600
H2853       H  0.50257624  0.52772557  0.32171251     0.27600
C2854       C  0.83315163  0.84932190  0.14776578     0.88000
C2855       C  0.81563427  0.87370109  0.12767561    -0.52300
C2856       C  0.83384800  0.89487895  0.11272570     0.10900
C2857       C  0.86770405  0.88963293  0.11911231     0.21900
C2858       C  0.85537430  0.83376183  0.12631268    -0.53000
C2859       C  0.87367971  0.85484310  0.11143299     0.11000
C2860       C  0.85352341  0.86998261  0.16915035    -0.52500
C2861       C  0.87142238  0.89128093  0.15363214     0.11600
H2862       H  0.79107856  0.87401178  0.12577312     0.16100
H2863       H  0.88249232  0.90678266  0.10681757     0.01800
H2864       H  0.85599007  0.80826855  0.12300964     0.16400
H2865       H  0.85279460  0.86937999  0.19372571     0.16200
C2866       C  0.66800242  0.84920159  0.15511838     0.88000
C2867       C  0.64927140  0.87301906  0.17277470    -0.52300
C2868       C  0.62982010  0.89056381  0.15494912     0.10900
C2869       C  0.63138929  0.88320793  0.12094337     0.21900
C2870       C  0.64450873  0.82935750  0.13667150    -0.53000
C2871       C  0.62524773  0.84736262  0.11866024     0.11000
C2872       C  0.68426798  0.86978511  0.13105324    -0.52500
C2873       C  0.66490476  0.88773340  0.11311516     0.11600
H2874       H  0.65113005  0.87562889  0.19723856     0.16100
H2875       H  0.61602169  0.89790732  0.10624344     0.01800
H2876       H  0.64345365  0.80359542  0.13795508     0.16400
H2877       H  0.70867769  0.87003056  0.12869516     0.16200
N2878       N  0.56506370  0.79019312  0.01062751    -0.35100
N2879       N  0.51776487  0.78994716  0.05688372    -0.55700
N2880       N  0.93990759  0.80631087  0.00795809    -0.35100
N2881       N  0.50075694  0.79658415  0.45609068    -0.55700
C2882       C  0.58165726  0.79911814  0.03540812     0.28500
C2883       C  0.56480315  0.79292047  0.47880454     0.28500
C2884       C  0.92209403  0.81090479  0.03215038     0.28500
C2885       C  0.93951870  0.80032295  0.46736897     0.28500
C2886       C  0.54288248  0.78893607  0.07520652     0.37100
C2887       C  0.96139646  0.80620484  0.07442286     0.37100
C2888       C  0.52463398  0.79181959  0.43797455     0.37100
C2889       C  0.97753021  0.79668083  0.42603430     0.37100
C2890       C  0.60970081  0.81037796  0.02624023    -0.20400
C2891       C  0.59359648  0.80169294  0.48898593    -0.20400
C2892       C  0.89323358  0.81916161  0.02180173    -0.20400
C2893       C  0.91222951  0.81097299  0.47835294    -0.20400
C2894       C  0.53463894  0.78299671  0.10492183    -0.21500
C2895       C  0.97048776  0.80949209  0.10459247    -0.21500
C2896       C  0.51485194  0.79124332  0.40785378    -0.21500
C2897       C  0.98472996  0.79605997  0.39557873    -0.21500
C2898       C  0.57274441  0.79669641  0.06616966    -0.16800
C2899       C  0.55550315  0.79227086  0.44776616    -0.16800
C2900       C  0.94845680  0.80399930  0.43670643    -0.16800
C2901       C  0.93118601  0.81005069  0.06337488    -0.16800
H2902       H  0.62816350  0.81915001  0.04045854     0.16100
H2903       H  0.61272729  0.80858845  0.47537579     0.16100
H2904       H  0.87371315  0.82450499  0.03514090     0.16100
H2905       H  0.89413474  0.82304581  0.46595308     0.16100
H2906       H  0.54944860  0.78162565  0.12484149     0.14400
H2907       H  0.95633419  0.81370253  0.12381771     0.14400
H2908       H  0.52858447  0.78856738  0.38805284     0.14400
H2909       H  0.96940954  0.79876284  0.37615769     0.14400
H2910       H  0.54436164  0.77828457  0.01074736     0.27600
H2911       H  0.96210643  0.79868392  0.00884227     0.27600
C2912       C  0.65684349  0.65305547  0.14489961     0.88000
C2913       C  0.67564792  0.63393404  0.12265433    -0.52300
C2914       C  0.65874382  0.61987438  0.10005853     0.10900
C2915       C  0.62456396  0.62726248  0.10135082     0.21900
C2916       C  0.63905730  0.67725026  0.12494068    -0.53000
C2917       C  0.62223260  0.66391642  0.10193955     0.11000
C2918       C  0.63249661  0.62944318  0.15601432    -0.52500
C2919       C  0.61547669  0.61586571  0.13322085     0.11600
H2920       H  0.69995457  0.63065695  0.12537622     0.16100
H2921       H  0.61050446  0.61637403  0.08306410     0.01800
H2922       H  0.63919778  0.70262577  0.12912264     0.16400
H2923       H  0.62914504  0.62440632  0.17990930     0.16200
N2924       N  0.51020901  0.95749141  0.17658264    -0.35100
N2925       N  0.95073449  0.50259630  0.19939718    -0.55700
N2926       N  0.50278412  0.55090587  0.17401851    -0.35100
N2927       N  0.54561362  0.49970048  0.17281414    -0.55700
C2928       C  0.96745724  0.93144108  0.18444250     0.28500
C2929       C  0.53513661  0.93900900  0.17620774     0.28500
C2930       C  0.96662703  0.57156117  0.19005891     0.28500
C2931       C  0.52928702  0.56730860  0.17629188     0.28500
C2932       C  0.92752056  0.96983149  0.19741893     0.37100
C2933       C  0.93121929  0.52683649  0.20316379     0.37100
C2934       C  0.57328264  0.98004013  0.16113659     0.37100
C2935       C  0.56337203  0.52364312  0.16256306     0.37100
C2936       C  0.97666074  0.90448286  0.16959160    -0.20400
C2937       C  0.52794517  0.90859198  0.18643466    -0.20400
C2938       C  0.97290551  0.60230608  0.17980775    -0.20400
C2939       C  0.52358239  0.59810765  0.18518023    -0.20400
C2940       C  0.89889613  0.97798032  0.20682091    -0.21500
C2941       C  0.90339295  0.51483770  0.21204149    -0.21500
C2942       C  0.60086075  0.98952166  0.14947447    -0.21500
C2943       C  0.58792498  0.51160099  0.14760444    -0.21500
C2944       C  0.93690614  0.93856435  0.19085829    -0.16800
C2945       C  0.56358086  0.94807512  0.16469840    -0.16800
C2946       C  0.55788182  0.55607346  0.16754467    -0.16800
C2947       C  0.93697288  0.55899789  0.19472582    -0.16800
H2948       H  0.96251683  0.88543684  0.16084295     0.16100
H2949       H  0.54283384  0.88827305  0.18828527     0.16100
H2950       H  0.95696386  0.62096107  0.17394119     0.16100
H2951       H  0.53986892  0.61721440  0.18826615     0.16100
H2952       H  0.88066262  0.96203371  0.21312681     0.14400
H2953       H  0.88297075  0.52807377  0.21598056     0.14400
H2954       H  0.61853356  0.97465183  0.14092624     0.14400
H2955       H  0.60610150  0.52484730  0.13710104     0.14400
H2956       H  0.50814314  0.97970445  0.16621443     0.27600
H2957       H  0.49949874  0.52888931  0.16410396     0.27600
N2958       N  0.71184697  0.94917136  0.00176795    -0.35100
N2959       N  0.68712030  0.49056632  0.46490158    -0.55700
N2960       N  0.68579746  0.53976591  0.99308845    -0.35100
N2961       N  0.67267378  0.49114927  0.03962399    -0.55700
C2962       C  0.67854338  0.92187645  0.48175990     0.28500
C2963       C  0.71490039  0.93266605  0.02833777     0.28500
C2964       C  0.68476904  0.55710415  0.48479555     0.28500
C2965       C  0.67719132  0.55891771  0.01584397     0.28500
C2966       C  0.68804729  0.96559929  0.44353457     0.37100
C2967       C  0.68104173  0.51539919  0.44579312     0.37100
C2968       C  0.70090101  0.97597520  0.06375168     0.37100
C2969       C  0.66771906  0.51722069  0.05631127     0.37100
C2970       C  0.66931209  0.89111067  0.48908689    -0.20400
C2971       C  0.72269810  0.90153887  0.02226306    -0.20400
C2972       C  0.69189072  0.58764854  0.49390242    -0.20400
C2973       C  0.67533773  0.58997203  0.00486312    -0.20400
C2974       C  0.69401396  0.97650370  0.41440191    -0.21500
C2975       C  0.67407088  0.50460066  0.41692215    -0.21500
C2976       C  0.68841905  0.98650910  0.09035595    -0.21500
C2977       C  0.66038213  0.50804474  0.08563575    -0.21500
C2978       C  0.68312770  0.93320510  0.45163614    -0.16800
C2979       C  0.70701446  0.94368865  0.05738879    -0.16800
C2980       C  0.66879846  0.54925480  0.04565739    -0.16800
C2981       C  0.68175645  0.54766984  0.45417663    -0.16800
H2982       H  0.66441916  0.87188273  0.47366219     0.16100
H2983       H  0.72608872  0.88222317  0.03851443     0.16100
H2984       H  0.69796859  0.60776748  0.47959923     0.16100
H2985       H  0.66856682  0.61084751  0.01691540     0.16100
H2986       H  0.69681329  0.96243318  0.39433692     0.14400
H2987       H  0.66807589  0.51867182  0.39689437     0.14400
H2988       H  0.68192077  0.97239348  0.10993432     0.14400
H2989       H  0.65545353  0.52325514  0.10443002     0.14400
H2990       H  0.70256536  0.97155134  0.99906798     0.27600
H2991       H  0.69002776  0.51564522  0.99478666     0.27600
N2992       N  0.51273938  0.69929392  0.03007819    -0.35100
N2993       N  0.95227559  0.69104063  0.00713750    -0.55700
N2994       N  0.49606650  0.71229030  0.45908652    -0.35100
N2995       N  0.55656059  0.69957045  0.98117982    -0.55700
C2996       C  0.97807734  0.68776664  0.07008474     0.28500
C2997       C  0.53766489  0.68766872  0.04510655     0.28500
C2998       C  0.97610124  0.70754486  0.43989949     0.28500
C2999       C  0.52113451  0.70763924  0.44254687     0.28500
C3000       C  0.93717645  0.67871386  0.03109402     0.37100
C3001       C  0.93554698  0.69890811  0.47868058     0.37100
C3002       C  0.57577446  0.69965211  0.00559317     0.37100
C3003       C  0.55991344  0.70899852  0.48476303     0.37100
C3004       C  0.98820998  0.69214783  0.09971825    -0.20400
C3005       C  0.52881839  0.67215995  0.07151811    -0.20400
C3006       C  0.98525422  0.71327987  0.41038170    -0.20400
C3007       C  0.51263914  0.70357653  0.41237082    -0.20400
C3008       C  0.90965040  0.66596625  0.02129699    -0.21500
C3009       C  0.90651739  0.68923332  0.48624233    -0.21500
C3010       C  0.60512263  0.70559614  0.99645211    -0.21500
C3011       C  0.58926219  0.71427500  0.49532845    -0.21500
C3012       C  0.94813029  0.67822066  0.06162096    -0.16800
C3013       C  0.56806810  0.68949501  0.03518317    -0.16800
C3014       C  0.55149423  0.70650118  0.45373420    -0.16800
C3015       C  0.94540473  0.70295509  0.44834873    -0.16800
H3016       H  0.97508009  0.69005742  0.12009707     0.16100
H3017       H  0.54305970  0.65995905  0.08824089     0.16100
H3018       H  0.97093885  0.71682292  0.39033407     0.16100
H3019       H  0.52726063  0.69961613  0.39345527     0.16100
H3020       H  0.89270321  0.65405966  0.03480704     0.14400
H3021       H  0.88750413  0.68443984  0.47098127     0.14400
H3022       H  0.62548885  0.70623070  0.01062747     0.14400
H3023       H  0.60925348  0.71824200  0.48198813     0.14400
H3024       H  0.51253594  0.71359954  0.01057773     0.27600
H3025       H  0.49556358  0.71828714  0.48176107     0.27600
C3026       C  0.84002026  0.65328445  0.15092703     0.88000
C3027       C  0.86151637  0.62989802  0.16828662    -0.52300
C3028       C  0.88077732  0.61409097  0.14983608     0.10900
C3029       C  0.87649678  0.62294542  0.11606255     0.21900
C3030       C  0.86106638  0.67519086  0.13232726    -0.53000
C3031       C  0.88042545  0.65937752  0.11419856     0.11000
C3032       C  0.82360032  0.63284256  0.12701205    -0.52500
C3033       C  0.84259694  0.61653708  0.10904945     0.11600
H3034       H  0.86156695  0.62669142  0.19276846     0.16100
H3035       H  0.89189249  0.61021547  0.10096074     0.01800
H3036       H  0.86048549  0.70096539  0.13327561     0.16400
H3037       H  0.79908731  0.63081479  0.12492922     0.16200
N3038       N  0.82525089  0.54191120  0.99869989    -0.35100
N3039       N  0.78520862  0.00583885  0.04596286    -0.55700
N3040       N  0.79317737  0.95646114  0.00023898    -0.35100
N3041       N  0.83747461  0.00450514  0.45190423    -0.55700
C3042       C  0.83399975  0.55843733  0.02361570     0.28500
C3043       C  0.83590026  0.56490506  0.47194838     0.28500
C3044       C  0.79771562  0.93937496  0.02626228     0.28500
C3045       C  0.85393083  0.93830101  0.47314731     0.28500
C3046       C  0.83475227  0.51368785  0.06207966     0.37100
C3047       C  0.78157496  0.97966082  0.06380039     0.37100
C3048       C  0.83075917  0.52394498  0.43188801     0.37100
C3049       C  0.83759815  0.97886611  0.43385351     0.37100
C3050       C  0.84087583  0.58954042  0.01502506    -0.20400
C3051       C  0.84589602  0.59477699  0.48083758    -0.20400
C3052       C  0.81213651  0.91115025  0.01977910    -0.20400
C3053       C  0.86838826  0.91011586  0.48140263    -0.20400
C3054       C  0.83598782  0.50232090  0.09178140    -0.21500
C3055       C  0.77355758  0.98851793  0.09266525    -0.21500
C3056       C  0.82742923  0.51466810  0.40194499    -0.21500
C3057       C  0.82888970  0.98757652  0.40444075    -0.21500
C3058       C  0.83682413  0.54633379  0.05383777    -0.16800
C3059       C  0.83128844  0.55588262  0.44142692    -0.16800
C3060       C  0.84798889  0.94832671  0.44274578    -0.16800
C3061       C  0.78978852  0.94845355  0.05589472    -0.16800
H3062       H  0.84910529  0.60861573  0.02923076     0.16100
H3063       H  0.85149068  0.61495557  0.46639457     0.16100
H3064       H  0.81886749  0.89227128  0.03546527     0.16100
H3065       H  0.87743313  0.89245455  0.46657253     0.16100
H3066       H  0.83698514  0.51603227  0.11235414     0.14400
H3067       H  0.76986775  0.97307672  0.11215395     0.14400
H3068       H  0.82268018  0.52967597  0.38222052     0.14400
H3069       H  0.82753025  0.97255708  0.38473996     0.14400
H3070       H  0.81689102  0.51878197  0.99842511     0.27600
H3071       H  0.78058388  0.97716457  0.99800480     0.27600
C3072       C  0.83111867  0.59425994  0.08563954    -0.14900
C3073       C  0.84696013  0.56853456  0.07814274    -0.30100
H3074       H  0.80907292  0.59858264  0.07489389     0.14100
H3075       H  0.86763644  0.56260157  0.09079979     0.14700
C3076       C  0.92846246  0.66383815  0.08562765    -0.14900
C3077       C  0.90159611  0.67617069  0.09322356    -0.30100
H3078       H  0.93650804  0.64232586  0.09708032     0.14100
H3079       H  0.89478307  0.69902163  0.08352614     0.14700
C3080       C  0.91034249  0.58015904  0.18812555    -0.14900
C3081       C  0.90483621  0.59112719  0.15960281    -0.30100
H3082       H  0.89538444  0.58592497  0.20637874     0.14100
H3083       H  0.91969041  0.58330396  0.14192240     0.14700
C3084       C  0.59250710  0.67365506  0.05403252    -0.14900
C3085       C  0.60103476  0.68296277  0.08204826    -0.30100
H3086       H  0.60364970  0.65350820  0.04413401     0.14100
H3087       H  0.59165570  0.70464506  0.09090191     0.14700
C3088       C  0.65587709  0.57355225  0.06599273    -0.14900
C3089       C  0.67218349  0.59750312  0.07826051    -0.30100
H3090       H  0.63266821  0.56964380  0.07282181     0.14100
H3091       H  0.69619024  0.59951404  0.07360830     0.14700
C3092       C  0.59042511  0.59233625  0.13761833    -0.14900
C3093       C  0.58335788  0.57916137  0.16461639    -0.30100
H3094       H  0.57739478  0.58526249  0.11757963     0.14100
H3095       H  0.59577080  0.58529988  0.18522250     0.14700
C3096       C  0.60054539  0.83538462  0.09794562    -0.14900
C3097       C  0.59590110  0.80482860  0.09026723    -0.30100
H3098       H  0.58613716  0.85327825  0.08703446     0.14100
H3099       H  0.61009273  0.78603143  0.09977820     0.14700
C3100       C  0.67354867  0.91031672  0.08835202    -0.14900
C3101       C  0.70197385  0.91942853  0.08188092    -0.30100
H3102       H  0.65503714  0.92107916  0.07519387     0.14100
H3103       H  0.72139496  0.90952692  0.09413223     0.14700
C3104       C  0.58324004  0.92234945  0.15390770    -0.14900
C3105       C  0.60992268  0.91508742  0.16739504    -0.30100
H3106       H  0.57465592  0.90842464  0.13499774     0.14100
H3107       H  0.61708429  0.92716097  0.18799180     0.14700
C3108       C  0.90776116  0.81663965  0.08617977    -0.14900
C3109       C  0.89684116  0.84618566  0.08917702    -0.30100
H3110       H  0.90108393  0.79743122  0.10139390     0.14100
H3111       H  0.90568462  0.86519364  0.07483109     0.14700
C3112       C  0.82363550  0.92116217  0.09213035    -0.14900
C3113       C  0.79528551  0.92480695  0.08086725    -0.30100
H3114       H  0.84112385  0.93728868  0.08397580     0.14100
H3115       H  0.77709149  0.90878743  0.08722494     0.14700
C3116       C  0.91352421  0.91282749  0.18630654    -0.14900
C3117       C  0.88988836  0.91737431  0.16693203    -0.30100
H3118       H  0.91843267  0.88889970  0.19462484     0.14100
H3119       H  0.88744017  0.94049134  0.15578549     0.14700
C3120       C  0.58731065  0.60299693  0.34900307    -0.14900
C3121       C  0.58134348  0.57357141  0.35958875    -0.30100
H3122       H  0.57600242  0.61178980  0.32837865     0.14100
H3123       H  0.59470445  0.56394148  0.37860850     0.14700
C3124       C  0.65368122  0.59235921  0.43064966    -0.14900
C3125       C  0.67760346  0.57280102  0.43002308    -0.30100
H3126       H  0.63751792  0.58903019  0.44867816     0.14100
H3127       H  0.69249910  0.57341881  0.41076010     0.14700
C3128       C  0.57584422  0.69992531  0.43175423    -0.14900
C3129       C  0.58735825  0.67043815  0.43028460    -0.30100
H3130       H  0.58218194  0.71833653  0.41550758     0.14100
H3131       H  0.57862284  0.65214682  0.44552031     0.14700
C3132       C  0.57935032  0.79761111  0.42453701    -0.14900
C3133       C  0.58170854  0.82629147  0.41081230    -0.30100
H3134       H  0.59666621  0.77977213  0.42178721     0.14100
H3135       H  0.56506425  0.84411661  0.41626445     0.14700
C3136       C  0.58464341  0.89879082  0.33496065    -0.14900
C3137       C  0.57475850  0.92438989  0.34953380    -0.30100
H3138       H  0.57607271  0.89379084  0.31220869     0.14100
H3139       H  0.58546992  0.93107915  0.37094387     0.14700
C3140       C  0.65240393  0.90614709  0.41271019    -0.14900
C3141       C  0.67954719  0.90966706  0.42678924    -0.30100
H3142       H  0.63432679  0.92209994  0.41874827     0.14100
H3143       H  0.69773277  0.89305802  0.42309452     0.14700
C3144       C  0.83146596  0.58170316  0.41806990    -0.14900
C3145       C  0.85714633  0.58846693  0.40357084    -0.30100
H3146       H  0.81218269  0.59752334  0.41637206     0.14100
H3147       H  0.87668068  0.57328889  0.40783221     0.14700
C3148       C  0.92222446  0.58077771  0.33247869    -0.19600
C3149       C  0.91383013  0.60996297  0.32268688    -0.30100
H3150       H  0.91160075  0.57028016  0.35229804     0.14100
H3151       H  0.92230136  0.61969920  0.30151172     0.14700
C3152       C  0.92185937  0.67240910  0.40685279    -0.14900
C3153       C  0.92195732  0.69881655  0.42366886    -0.30100
H3154       H  0.94030757  0.65566668  0.41038936     0.14100
H3155       H  0.90276346  0.71481571  0.42264860     0.14700
C3156       C  0.83886301  0.90001295  0.41325506    -0.14900
C3157       C  0.85560209  0.92608986  0.41844380    -0.30100
H3158       H  0.81801903  0.89606821  0.42544912     0.14100
H3159       H  0.87513437  0.93154311  0.40468380     0.14700
C3160       C  0.90018143  0.81111964  0.40699518    -0.14900
C3161       C  0.92798517  0.82148245  0.41500348    -0.30100
H3162       H  0.89235691  0.78801562  0.41513870     0.14100
H3163       H  0.93687224  0.84312244  0.40464131     0.14700
C3164       C  0.91066462  0.89598980  0.34220980    -0.14900
C3165       C  0.90862067  0.91761775  0.31950653    -0.30100
H3166       H  0.93042904  0.89647557  0.35741755     0.14100
H3167       H  0.88771269  0.91994603  0.30615170     0.14700
C3168       C  0.81720041  0.82555416  0.32795509    -0.14900
C3169       C  0.82464042  0.80265302  0.30877363    -0.30100
H3170       H  0.79347756  0.83122937  0.33094078     0.14100
H3171       H  0.84828962  0.79630087  0.30645413     0.14700
C3172       C  0.80557862  0.67555863  0.31947312    -0.14900
C3173       C  0.82672935  0.68567400  0.33979570    -0.30100
H3174       H  0.80620080  0.65122199  0.31166522     0.14100
H3175       H  0.82705614  0.71056284  0.34607755     0.14700
C3176       C  0.66996603  0.81846961  0.33636506    -0.14900
C3177       C  0.66185703  0.79737028  0.31469852    -0.30100
H3178       H  0.69396070  0.82250195  0.34105257     0.14100
H3179       H  0.63797424  0.79246602  0.31030140     0.14700
C3180       C  0.81179355  0.82443052  0.16109596    -0.14900
C3181       C  0.81149050  0.81455893  0.19027419    -0.30100
H3182       H  0.79677928  0.81260451  0.14486801     0.14100
H3183       H  0.82691074  0.82501321  0.20687010     0.14700
C3184       C  0.68924332  0.67398465  0.33141257    -0.14900
C3185       C  0.67258371  0.68360138  0.35481078    -0.30100
H3186       H  0.68796592  0.64930273  0.32460418     0.14100
H3187       H  0.67251672  0.70871575  0.36023932     0.14700
C3188       C  0.68917195  0.82941600  0.17550089    -0.14900
C3189       C  0.67847447  0.81049080  0.19788024    -0.30100
H3190       H  0.71331601  0.82981434  0.17119885     0.14100
H3191       H  0.65415809  0.80935328  0.20113191     0.14700
C3192       C  0.82842766  0.68890257  0.19410210    -0.14900
C3193       C  0.81825670  0.67132413  0.17074228    -0.30100
H3194       H  0.85260899  0.68894812  0.19940710     0.14100
H3195       H  0.79408136  0.67041381  0.16550736     0.14700
C3196       C  0.69650581  0.69014033  0.16734674    -0.14900
C3197       C  0.67497714  0.66764203  0.17117602    -0.30100
H3198       H  0.70166825  0.69815442  0.14446269     0.14100
H3199       H  0.66925808  0.66048327  0.19416549     0.14700
O3200       O  0.71358003  0.70756409  0.71431641    -0.78600
O3201       O  0.79015596  0.70099268  0.77449868    -0.78700
O3202       O  0.77290505  0.73678197  0.68496828    -0.78700
O3203       O  0.72620596  0.72795551  0.81553060    -0.78600
O3204       O  0.78518768  0.70151779  0.71750189    -0.78700
O3205       O  0.71453917  0.69620550  0.77737850    -0.78700
O3206       O  0.78683449  0.73293634  0.81259727    -0.78600
O3207       O  0.71906277  0.74930136  0.68416113    -0.78700
C3208       C  0.70874324  0.72108697  0.68877128     1.11000
C3209       C  0.79381674  0.70600823  0.80217293     1.10900
C3210       C  0.78390924  0.70998215  0.69062748     1.11100
C3211       C  0.71560868  0.70174832  0.80563088     1.10900
O3212       O  0.68506841  0.75577338  0.78505892    -0.78600
O3213       O  0.80622173  0.77330794  0.71263683    -0.78700
O3214       O  0.72528478  0.80310716  0.72611821    -0.78700
O3215       O  0.77929066  0.79702037  0.78412437    -0.78600
O3216       O  0.81621907  0.76527986  0.77516161    -0.78700
O3217       O  0.68726582  0.76907409  0.72452601    -0.78700
O3218       O  0.71919077  0.79267318  0.79106539    -0.78600
O3219       O  0.76984182  0.79722946  0.68333421    -0.78700
Co3220     Co  0.70375795  0.73222577  0.75016676     1.51500
Co3221     Co  0.79512362  0.73589384  0.74518503     1.51700
Co3222     Co  0.75191531  0.76943402  0.71156012     1.51600
Co3223     Co  0.75269269  0.76223400  0.79702094     1.51500
O3224       O  0.74906791  0.74678703  0.75211779    -1.40600
C3225       C  0.69289401  0.78239014  0.79589736     1.11000
C3226       C  0.79773813  0.79439456  0.69163659     1.11100
C3227       C  0.69768095  0.79708488  0.71993184     1.11000
C3228       C  0.80693967  0.79079499  0.78636778     1.11000
C3229       C  0.83343554  0.84419634  0.85302634     0.88000
C3230       C  0.85803934  0.86764390  0.84221860    -0.52300
C3231       C  0.87344319  0.88210078  0.86557609     0.10900
C3232       C  0.86281310  0.87224073  0.89716520     0.21900
C3233       C  0.85022749  0.82095943  0.87484240    -0.53000
C3234       C  0.86623902  0.83568519  0.89763775     0.11000
C3235       C  0.81319914  0.86364969  0.87369337    -0.52500
C3236       C  0.82846364  0.87869327  0.89653542     0.11600
H3237       H  0.86264609  0.87244996  0.81847431     0.16100
H3238       H  0.87520413  0.88433358  0.91599116     0.01800
H3239       H  0.85054705  0.79540580  0.87171988     0.16400
H3240       H  0.78884578  0.86589366  0.87020905     0.16200
C3241       C  0.85157126  0.66167419  0.85458811     0.88000
C3242       C  0.83628594  0.63476005  0.87320607    -0.52300
C3243       C  0.85645668  0.61300613  0.88528876     0.10900
C3244       C  0.88953867  0.62039472  0.87792033     0.21900
C3245       C  0.87520132  0.67604509  0.87640740    -0.53000
C3246       C  0.89504241  0.65450160  0.88875104     0.11000
C3247       C  0.87050510  0.64446341  0.83075889    -0.52500
C3248       C  0.89004295  0.62236191  0.84311604     0.11600
H3249       H  0.81197996  0.63299913  0.87608809     0.16100
H3250       H  0.90591533  0.60315148  0.88823076     0.01800
H3251       H  0.87624367  0.70124606  0.88124221     0.16400
H3252       H  0.86832878  0.64905611  0.80647877     0.16200
C3253       C  0.66300319  0.83786603  0.85944934     0.88000
C3254       C  0.68193430  0.85735255  0.88265983    -0.52300
C3255       C  0.66498401  0.87584258  0.90093256     0.10900
C3256       C  0.63073018  0.87310770  0.89425834     0.21900
C3257       C  0.64021949  0.81874341  0.87910075    -0.53000
C3258       C  0.62322955  0.83753591  0.89735191     0.11000
C3259       C  0.64374954  0.86289756  0.84206563    -0.52500
C3260       C  0.62660947  0.88116283  0.86022637     0.11600
H3261       H  0.70648088  0.85640631  0.88441230     0.16100
H3262       H  0.61722250  0.88831950  0.90913952     0.01800
H3263       H  0.63760513  0.79309706  0.87823418     0.16400
H3264       H  0.64367183  0.86585555  0.81752477     0.16200
C3265       C  0.65566509  0.64552167  0.84065288     0.88000
C3266       C  0.62996254  0.62766223  0.82387700    -0.52300
C3267       C  0.61107478  0.61143059  0.84257043     0.10900
C3268       C  0.61919326  0.61488184  0.87643003     0.21900
C3269       C  0.63914458  0.66719691  0.86284133    -0.53000
C3270       C  0.62005773  0.65084943  0.88170135     0.11000
C3271       C  0.67153166  0.62004539  0.86095866    -0.52500
C3272       C  0.65217359  0.60404331  0.87976173     0.11600
H3273       H  0.62723806  0.62731925  0.79930763     0.16100
H3274       H  0.60348939  0.60194719  0.89172809     0.01800
H3275       H  0.64251177  0.69276276  0.86373843     0.16400
H3276       H  0.69555481  0.61494607  0.86001847     0.16200
N3277       N  0.50602667  0.94928823  0.84078671    -0.35100
N3278       N  0.95186060  0.49576944  0.81317453    -0.55700
N3279       N  0.49978694  0.53551650  0.82482569    -0.35100
N3280       N  0.54533371  0.48628404  0.82408944    -0.55700
C3281       C  0.97332336  0.92045971  0.84710210     0.28500
C3282       C  0.53122353  0.93132312  0.83936745     0.28500
C3283       C  0.97126113  0.56235878  0.82703348     0.28500
C3284       C  0.52439059  0.55152804  0.83564348     0.28500
C3285       C  0.93324564  0.96096651  0.83593159     0.37100
C3286       C  0.93295044  0.52102484  0.81262411     0.37100
C3287       C  0.56944338  0.97215554  0.85419777     0.37100
C3288       C  0.56353583  0.51216396  0.82307048     0.37100
C3289       C  0.98213444  0.89051777  0.85746708    -0.20400
C3290       C  0.52352669  0.90148581  0.82864525    -0.20400
C3291       C  0.97964967  0.58935573  0.84295437    -0.20400
C3292       C  0.51518647  0.57824616  0.85084440    -0.20400
C3293       C  0.90427207  0.96974130  0.82620465    -0.21500
C3294       C  0.90361040  0.51113321  0.80573299    -0.21500
C3295       C  0.59629135  0.98197995  0.86817687    -0.21500
C3296       C  0.59306635  0.50341597  0.81741160    -0.21500
C3297       C  0.94302477  0.92917839  0.83969086    -0.16800
C3298       C  0.56032847  0.94011607  0.85045296    -0.16800
C3299       C  0.55491528  0.54252644  0.83239872    -0.16800
C3300       C  0.94084679  0.55201757  0.82225087    -0.16800
H3301       H  0.96779675  0.86987982  0.86104862     0.16100
H3302       H  0.53852295  0.88159671  0.82563359     0.16100
H3303       H  0.96507235  0.60608283  0.85378479     0.16100
H3304       H  0.52935792  0.59573538  0.86216081     0.16100
H3305       H  0.88645161  0.95448002  0.81727054     0.14400
H3306       H  0.88339704  0.52556886  0.80454379     0.14400
H3307       H  0.61386121  0.96721364  0.87843526     0.14400
H3308       H  0.61288283  0.51869062  0.81647968     0.14400
H3309       H  0.50458798  0.97062996  0.85208241     0.27600
H3310       H  0.49987731  0.51607695  0.81054272     0.27600
C3311       C  0.86472287  0.82871476  0.64354689     0.88000
C3312       C  0.84584862  0.84951244  0.62090453    -0.52300
C3313       C  0.86298460  0.86902397  0.60302626     0.10900
C3314       C  0.89718122  0.86490031  0.60818928     0.21900
C3315       C  0.88630154  0.81025680  0.62302236    -0.53000
C3316       C  0.90304158  0.82940095  0.60423839     0.11000
C3317       C  0.88558551  0.85271081  0.66076289    -0.52500
C3318       C  0.90271806  0.87147348  0.64183649     0.11600
H3319       H  0.82124971  0.84952315  0.61970961     0.16100
H3320       H  0.91110837  0.88015893  0.59303558     0.01800
H3321       H  0.88747663  0.78449970  0.62295115     0.16400
H3322       H  0.88722700  0.85399579  0.68533092     0.16200
C3323       C  0.63837801  0.83247812  0.66181594     0.88000
C3324       C  0.61745539  0.85289238  0.68081829    -0.52300
C3325       C  0.59889766  0.87236930  0.66391800     0.10900
C3326       C  0.60214357  0.86885295  0.62949200     0.21900
C3327       C  0.61673938  0.81414351  0.64012600    -0.53000
C3328       C  0.59775839  0.83330784  0.62315510     0.11000
C3329       C  0.65505348  0.85632292  0.64076803    -0.52500
C3330       C  0.63571760  0.87538997  0.62382269     0.11600
H3331       H  0.61783900  0.85252125  0.70548398     0.16100
H3332       H  0.58659579  0.88413530  0.61554337     0.01800
H3333       H  0.61635052  0.78840593  0.63856643     0.16400
H3334       H  0.67955239  0.85826097  0.63984807     0.16200
N3335       N  0.54725747  0.78630820  0.50300877    -0.35100
N3336       N  0.49966702  0.78812043  0.54863614    -0.55700
N3337       N  0.95607684  0.78707370  0.49056970    -0.35100
N3338       N  0.51797767  0.79315530  0.96390116    -0.55700
C3339       C  0.56427911  0.79203926  0.52841645     0.28500
C3340       C  0.58193783  0.79659509  0.98585857     0.28500
C3341       C  0.94016029  0.79064157  0.51629010     0.28500
C3342       C  0.92320313  0.81351865  0.98250921     0.28500
C3343       C  0.52426398  0.78308213  0.56696758     0.37100
C3344       C  0.98080812  0.77672563  0.55448593     0.37100
C3345       C  0.54192761  0.78899321  0.94575577     0.37100
C3346       C  0.96385258  0.80921681  0.94351744     0.37100
C3347       C  0.59321792  0.80132203  0.52018415    -0.20400
C3348       C  0.60991560  0.80864774  0.99510782    -0.20400
C3349       C  0.91246015  0.80445425  0.50895936    -0.20400
C3350       C  0.89405089  0.82132677  0.99078305    -0.20400
C3351       C  0.51525264  0.77520047  0.59606196    -0.21500
C3352       C  0.99128127  0.77116291  0.58398643    -0.21500
C3353       C  0.53195984  0.78606905  0.91586009    -0.21500
C3354       C  0.97407701  0.81230865  0.91407995    -0.21500
C3355       C  0.55464341  0.78915780  0.55886742    -0.16800
C3356       C  0.57268875  0.79263244  0.95505398    -0.16800
C3357       C  0.93374862  0.81576661  0.95222595    -0.16800
C3358       C  0.95028102  0.78341558  0.54647263    -0.16800
H3359       H  0.61209922  0.80762068  0.53507511     0.16100
H3360       H  0.62839233  0.81614561  0.98088134     0.16100
H3361       H  0.89461851  0.81051324  0.52420414     0.16100
H3362       H  0.87525970  0.82888650  0.97628307     0.16100
H3363       H  0.52966000  0.77046086  0.61583259     0.14400
H3364       H  0.97797439  0.76825155  0.60417119     0.14400
H3365       H  0.54567946  0.78330632  0.89606089     0.14400
H3366       H  0.96097891  0.81870574  0.89383407     0.14400
H3367       H  0.52555386  0.77658823  0.50220554     0.27600
H3368       H  0.97650795  0.77527037  0.48869446     0.27600
C3369       C  0.65044756  0.66192095  0.65216641     0.88000
C3370       C  0.67059982  0.64138370  0.63244370    -0.52300
C3371       C  0.65488607  0.62195403  0.61315761     0.10900
C3372       C  0.62028797  0.62551936  0.61488731     0.21900
C3373       C  0.62957167  0.68036840  0.62959352    -0.53000
C3374       C  0.61384381  0.66100373  0.61003587     0.11000
C3375       C  0.62899959  0.63771228  0.66799162    -0.52500
C3376       C  0.61318931  0.61860600  0.64816686     0.11600
H3377       H  0.69518706  0.64142752  0.63438945     0.16100
H3378       H  0.60670183  0.61079908  0.59893216     0.01800
H3379       H  0.62768408  0.70609682  0.62897016     0.16400
H3380       H  0.62710526  0.63554465  0.69245531     0.16200
N3381       N  0.49396552  0.95207629  0.68591251    -0.35100
N3382       N  0.95192956  0.50456206  0.68441117    -0.55700
N3383       N  0.49812736  0.55549274  0.69289527    -0.35100
N3384       N  0.54333244  0.50702305  0.68401992    -0.55700
C3385       C  0.97811385  0.93581966  0.67558452     0.28500
C3386       C  0.51788926  0.93489217  0.67689385     0.28500
C3387       C  0.97338798  0.57246494  0.68877711     0.28500
C3388       C  0.52231443  0.57400948  0.68574638     0.28500
C3389       C  0.93755939  0.97662213  0.67265232     0.37100
C3390       C  0.93373212  0.53013298  0.68033121     0.37100
C3391       C  0.55864220  0.97680082  0.68116804     0.37100
C3392       C  0.56222707  0.53228355  0.68740257     0.37100
C3393       C  0.98866148  0.90562671  0.68298860    -0.20400
C3394       C  0.50787123  0.90480524  0.66869616    -0.20400
C3395       C  0.98212951  0.60295658  0.69692663    -0.20400
C3396       C  0.51240360  0.60421245  0.67751347    -0.20400
C3397       C  0.90810783  0.98666082  0.66687364    -0.21500
C3398       C  0.90438611  0.52009000  0.67333385    -0.21500
C3399       C  0.58888223  0.98583814  0.68319438    -0.21500
C3400       C  0.59206598  0.52216042  0.68882682    -0.21500
C3401       C  0.94701572  0.94437918  0.67367828    -0.16800
C3402       C  0.54850331  0.94539216  0.67542556    -0.16800
C3403       C  0.55311014  0.56453153  0.68620573    -0.16800
C3404       C  0.94288837  0.56240977  0.68350298    -0.16800
H3405       H  0.97551857  0.88531039  0.69059054     0.16100
H3406       H  0.52097944  0.88545830  0.66009381     0.16100
H3407       H  0.96747663  0.62268901  0.70168249     0.16100
H3408       H  0.52607654  0.62440853  0.67056695     0.16100
H3409       H  0.88828986  0.97207155  0.66228201     0.14400
H3410       H  0.88463551  0.53473196  0.66899862     0.14400
H3411       H  0.60855500  0.97078305  0.68166721     0.14400
H3412       H  0.61230936  0.53670057  0.69098496     0.14400
H3413       H  0.49496970  0.97446823  0.69522265     0.27600
H3414       H  0.49905229  0.53281416  0.70250348     0.27600
N3415       N  0.68214935  0.93866371  0.50761467    -0.35100
N3416       N  0.69191326  0.48962558  0.94752959    -0.55700
N3417       N  0.67758503  0.53900318  0.50933291    -0.35100
N3418       N  0.67610226  0.49162577  0.55886432    -0.55700
C3419       C  0.71689518  0.92886707  0.97894962     0.28500
C3420       C  0.67446291  0.91916112  0.53109712     0.28500
C3421       C  0.68778870  0.55807925  0.96753867     0.28500
C3422       C  0.67947624  0.55782910  0.53390514     0.28500
C3423       C  0.71277254  0.96699218  0.93477673     0.37100
C3424       C  0.69359591  0.51524710  0.92865072     0.37100
C3425       C  0.67505177  0.95921919  0.57228638     0.37100
C3426       C  0.66642554  0.51737487  0.57366259     0.37100
C3427       C  0.72372197  0.89910596  0.99112953    -0.20400
C3428       C  0.66676964  0.88940813  0.52010087    -0.20400
C3429       C  0.68217065  0.58948302  0.97466422    -0.20400
C3430       C  0.68833192  0.58821141  0.52481001    -0.20400
C3431       C  0.70799326  0.97414345  0.90419221    -0.21500
C3432       C  0.69423545  0.50539535  0.89875873    -0.21500
C3433       C  0.67677724  0.96792866  0.60250718    -0.21500
C3434       C  0.65454791  0.50810192  0.60136193    -0.21500
C3435       C  0.71282310  0.93575974  0.94748123    -0.16800
C3436       C  0.67384716  0.92739381  0.56217793    -0.16800
C3437       C  0.66909630  0.54923374  0.56311369    -0.16800
C3438       C  0.69172361  0.54748822  0.93735337    -0.16800
H3439       H  0.72831805  0.87769632  0.97881431     0.16100
H3440       H  0.65941142  0.86872549  0.53297395     0.16100
H3441       H  0.68161743  0.60990965  0.95937768     0.16100
H3442       H  0.69111841  0.60907569  0.53856297     0.16100
H3443       H  0.70446818  0.95763039  0.88584943     0.14400
H3444       H  0.69512223  0.52017233  0.87843479     0.14400
H3445       H  0.67949799  0.95252177  0.62229653     0.14400
H3446       H  0.64555326  0.52316058  0.61862015     0.14400
H3447       H  0.69128363  0.96136768  0.50939316     0.27600
H3448       H  0.66714500  0.51681991  0.50871670     0.27600
N3449       N  0.49317367  0.70148554  0.55347792    -0.35100
N3450       N  0.95306050  0.70138917  0.50423887    -0.55700
N3451       N  0.50871135  0.70701786  0.93457734    -0.35100
N3452       N  0.54109600  0.70489110  0.50836073    -0.55700
C3453       C  0.97631465  0.69221878  0.56837038     0.28500
C3454       C  0.51795493  0.69469178  0.57116929     0.28500
C3455       C  0.97137452  0.70389852  0.94284618     0.28500
C3456       C  0.53250230  0.69980583  0.91707819     0.28500
C3457       C  0.93561269  0.69196234  0.52773890     0.37100
C3458       C  0.93479424  0.68540580  0.98217433     0.37100
C3459       C  0.55847054  0.70746481  0.53392891     0.37100
C3460       C  0.57377270  0.70455498  0.95651132     0.37100
C3461       C  0.98557848  0.69281373  0.59866459    -0.20400
C3462       C  0.50885626  0.67962334  0.59771718    -0.20400
C3463       C  0.97772423  0.71640900  0.91429814    -0.20400
C3464       C  0.52180530  0.69087187  0.88860400    -0.20400
C3465       C  0.90662722  0.68464630  0.51712854    -0.21500
C3466       C  0.90806068  0.67037696  0.99038520    -0.21500
C3467       C  0.58829992  0.71379717  0.52640826    -0.21500
C3468       C  0.60383694  0.70885802  0.96539708    -0.21500
C3469       C  0.94579788  0.68796468  0.55839516    -0.16800
C3470       C  0.54868896  0.70057784  0.56378625    -0.16800
C3471       C  0.56359567  0.70051494  0.92609023    -0.16800
C3472       C  0.94239436  0.69349655  0.95199359    -0.16800
H3473       H  0.97133348  0.69236760  0.61832511     0.16100
H3474       H  0.52315213  0.67088036  0.61630503     0.16100
H3475       H  0.96165570  0.72222216  0.89612639     0.16100
H3476       H  0.53496386  0.68368059  0.86951548     0.16100
H3477       H  0.88771040  0.67577493  0.53001574     0.14400
H3478       H  0.88962336  0.66262454  0.97557116     0.14400
H3479       H  0.60758272  0.71701755  0.54170989     0.14400
H3480       H  0.62302936  0.71252676  0.95087895     0.14400
H3481       H  0.49313269  0.71493575  0.53350178     0.27600
H3482       H  0.51003600  0.71685157  0.95604006     0.27600
C3483       C  0.84239877  0.65667025  0.65102957     0.88000
C3484       C  0.86659374  0.63426508  0.66572120    -0.52300
C3485       C  0.88504511  0.62039744  0.64524151     0.10900
C3486       C  0.87755770  0.63028873  0.61231068     0.21900
C3487       C  0.86072993  0.68076025  0.63184486    -0.53000
C3488       C  0.87942817  0.66688741  0.61163121     0.11000
C3489       C  0.82529699  0.63611974  0.62767879    -0.52500
C3490       C  0.84375503  0.62212499  0.60754382     0.11600
H3491       H  0.86842010  0.62960891  0.68998636     0.16100
H3492       H  0.89212705  0.61889724  0.59554949     0.01800
H3493       H  0.85925918  0.70634890  0.63428377     0.16400
H3494       H  0.80090893  0.63245067  0.62748703     0.16200
N3495       N  0.83175053  0.54615724  0.49676421    -0.35100
N3496       N  0.85013343  0.00209407  0.54413171    -0.55700
N3497       N  0.84628329  0.95388447  0.49843043    -0.35100
N3498       N  0.79618705  0.00645010  0.95399090    -0.55700
C3499       C  0.83985749  0.56356401  0.52129766     0.28500
C3500       C  0.82745546  0.56198938  0.97441054     0.28500
C3501       C  0.85642310  0.93625084  0.52258292     0.28500
C3502       C  0.80596275  0.94006553  0.97759685     0.28500
C3503       C  0.83618293  0.52076093  0.56064504     0.37100
C3504       C  0.85082619  0.97627280  0.56286317     0.37100
C3505       C  0.82099427  0.52260163  0.93289804     0.37100
C3506       C  0.79987642  0.98085717  0.93620861     0.37100
C3507       C  0.84864057  0.59384273  0.51193715    -0.20400
C3508       C  0.83651032  0.59182744  0.98417108    -0.20400
C3509       C  0.86985083  0.90877437  0.51252667    -0.20400
C3510       C  0.81763571  0.91176743  0.98929718    -0.20400
C3511       C  0.83284250  0.51015313  0.59033604    -0.21500
C3512       C  0.85090025  0.98555368  0.59291374    -0.21500
C3513       C  0.81601241  0.51460606  0.90279079    -0.21500
C3514       C  0.79751342  0.98987803  0.90588239    -0.21500
C3515       C  0.83961507  0.55290396  0.55190712    -0.16800
C3516       C  0.82280131  0.55419292  0.94347467    -0.16800
C3517       C  0.80796770  0.95000865  0.94675724    -0.16800
C3518       C  0.85501306  0.94472691  0.55345340    -0.16800
H3519       H  0.85662084  0.61321023  0.52594953     0.16100
H3520       H  0.84074095  0.61288435  0.97039973     0.16100
H3521       H  0.88055591  0.89011780  0.52609442     0.16100
H3522       H  0.82952136  0.89355680  0.97739997     0.16100
H3523       H  0.82999637  0.52442835  0.61026901     0.14400
H3524       H  0.85207133  0.97048984  0.61307056     0.14400
H3525       H  0.81088080  0.53048513  0.88379290     0.14400
H3526       H  0.79990147  0.97494602  0.88633402     0.14400
H3527       H  0.82201622  0.52355814  0.49691162     0.27600
H3528       H  0.83311716  0.97421633  0.49920032     0.27600
C3529       C  0.83239794  0.60025109  0.58384511    -0.14900
C3530       C  0.84901708  0.57524892  0.57607660    -0.30100
H3531       H  0.81017671  0.60410122  0.57333175     0.14100
H3532       H  0.86983942  0.56974419  0.58868759     0.14700
C3533       C  0.92520382  0.67251421  0.58074480    -0.14900
C3534       C  0.89943536  0.68525064  0.59071988    -0.30100
H3535       H  0.93288763  0.64993944  0.59031249     0.14100
H3536       H  0.89310216  0.70918936  0.58357580     0.14700
C3537       C  0.91910506  0.58738037  0.68006779    -0.14900
C3538       C  0.90948943  0.59684592  0.65214739    -0.30100
H3539       H  0.90986249  0.59749037  0.70030444     0.14100
H3540       H  0.92009156  0.58630556  0.63274676     0.14700
C3541       C  0.57233207  0.69505593  0.58815358    -0.14900
C3542       C  0.59250422  0.67154084  0.58549419    -0.30100
H3543       H  0.57093085  0.70771245  0.60935074     0.14100
H3544       H  0.59121869  0.65696620  0.56536170     0.14700
C3545       C  0.65501575  0.57397032  0.58161834    -0.14900
C3546       C  0.67023416  0.59837450  0.59417311    -0.30100
H3547       H  0.63136874  0.56996022  0.58646805     0.14100
H3548       H  0.69458915  0.60030916  0.59150822     0.14700
C3549       C  0.59200586  0.59222666  0.65622497    -0.14900
C3550       C  0.57672349  0.58987651  0.68220204    -0.30100
H3551       H  0.58726102  0.57477181  0.63879747     0.14100
H3552       H  0.57887660  0.60837240  0.69901089     0.14700
C3553       C  0.57464320  0.82217286  0.60052392    -0.14900
C3554       C  0.57731322  0.79587877  0.58376037    -0.30100
H3555       H  0.55557972  0.83783310  0.59571858     0.14100
H3556       H  0.59749433  0.78131910  0.58596071     0.14700
C3557       C  0.64450409  0.90153714  0.60274537    -0.14900
C3558       C  0.66890681  0.90126752  0.58509767    -0.30100
H3559       H  0.62855165  0.92098901  0.59986710     0.14100
H3560       H  0.68348114  0.88056651  0.58525261     0.14700
C3561       C  0.57123912  0.92299038  0.66373904    -0.14900
C3562       C  0.57816777  0.89525611  0.67771924    -0.30100
H3563       H  0.58292125  0.93018543  0.64329215     0.14100
H3564       H  0.56855281  0.88940164  0.69960422     0.14700
C3565       C  0.92906522  0.78911898  0.57179109    -0.14900
C3566       C  0.92419274  0.81914488  0.58046951    -0.30100
H3567       H  0.91848244  0.76900381  0.58317139     0.14100
H3568       H  0.93588675  0.83810165  0.56829959     0.14700
C3569       C  0.85019239  0.89292092  0.58131401    -0.14900
C3570       C  0.86447417  0.92093347  0.57707002    -0.30100
H3571       H  0.82928338  0.88764528  0.56883319     0.14100
H3572       H  0.88384363  0.92710721  0.59155336     0.14700
C3573       C  0.92340914  0.91839544  0.67087341    -0.14900
C3574       C  0.92655338  0.89497263  0.65069160    -0.30100
H3575       H  0.90226643  0.92035458  0.68278078     0.14100
H3576       H  0.94634677  0.89558493  0.63649676     0.14700
C3577       C  0.58581651  0.59163212  0.83085490    -0.14900
C3578       C  0.57926322  0.56369928  0.84417856    -0.30100
H3579       H  0.57371230  0.59900923  0.81017277     0.14100
H3580       H  0.59329720  0.55488793  0.86307492     0.14700
C3581       C  0.66019741  0.57779103  0.90127994    -0.14900
C3582       C  0.68815335  0.57180942  0.91254835    -0.30100
H3583       H  0.64143396  0.56376510  0.91001802     0.14100
H3584       H  0.70752915  0.58611396  0.90591769     0.14700
C3585       C  0.58643590  0.69219649  0.90298391    -0.14900
C3586       C  0.60190045  0.66481234  0.90600776    -0.30100
H3587       H  0.58724458  0.70586553  0.88187194     0.14100
H3588       H  0.59810274  0.64983167  0.92592537     0.14700
C3589       C  0.59585762  0.79797838  0.93111538    -0.14900
C3590       C  0.59875007  0.82702343  0.91815319    -0.30100
H3591       H  0.61189641  0.77930833  0.92658862     0.14100
H3592       H  0.58330454  0.84539951  0.92510901     0.14700
C3593       C  0.60660950  0.90689288  0.84806428    -0.14900
C3594       C  0.58068236  0.91417319  0.86160519    -0.30100
H3595       H  0.61278194  0.91942247  0.82732355     0.14100
H3596       H  0.57303941  0.89977792  0.88067628     0.14700
C3597       C  0.67706046  0.89735067  0.92501534    -0.14900
C3598       C  0.70559505  0.90897115  0.92663949    -0.30100
H3599       H  0.66070675  0.90637045  0.94072891     0.14100
H3600       H  0.72208097  0.90258089  0.90996187     0.14700
C3601       C  0.82436193  0.58087850  0.92072589    -0.14900
C3602       C  0.84897758  0.58416633  0.90359384    -0.30100
H3603       H  0.80808651  0.60003868  0.92173783     0.14100
H3604       H  0.86627052  0.56590670  0.90539325     0.14700
C3605       C  0.91597768  0.57188707  0.83416814    -0.19600
C3606       C  0.91034204  0.60213486  0.82522845    -0.30100
H3607       H  0.90258907  0.56121080  0.85209799     0.14100
H3608       H  0.92181867  0.61246352  0.80584896     0.14700
C3609       C  0.91954889  0.66259772  0.91081711    -0.14900
C3610       C  0.91887883  0.68857938  0.92809971    -0.30100
H3611       H  0.93786988  0.64568892  0.91427381     0.14100
H3612       H  0.89971201  0.70458961  0.92715408     0.14700
C3613       C  0.81270095  0.89949446  0.91804569    -0.14900
C3614       C  0.82320935  0.92866028  0.92495868    -0.30100
H3615       H  0.79122558  0.89142199  0.92707486     0.14100
H3616       H  0.84313779  0.93781947  0.91362122     0.14700
C3617       C  0.88696895  0.81811273  0.91896574    -0.14900
C3618       C  0.91330198  0.83109293  0.92881506    -0.30100
H3619       H  0.88085982  0.79416372  0.92628264     0.14100
H3620       H  0.92055747  0.85389901  0.91946583     0.14700
C3621       C  0.89795906  0.90563578  0.86205974    -0.14900
C3622       C  0.91908884  0.90419221  0.84072605    -0.30100
H3623       H  0.89966534  0.92413666  0.87896183     0.14100
H3624       H  0.91976620  0.88428839  0.82538409     0.14700
C3625       C  0.81518862  0.82860149  0.82770388    -0.14900
C3626       C  0.82708299  0.80978144  0.80664429    -0.30100
H3627       H  0.79077565  0.83187870  0.82755922     0.14100
H3628       H  0.85131477  0.80541776  0.80695981     0.14700
C3629       C  0.80882134  0.68069325  0.82062584    -0.14900
C3630       C  0.83035515  0.68707403  0.84158590    -0.30100
H3631       H  0.80600635  0.65632619  0.81317928     0.14100
H3632       H  0.83424208  0.71170354  0.84780854     0.14700
C3633       C  0.68285498  0.81852080  0.83865244    -0.14900
C3634       C  0.67213600  0.79994182  0.81594850    -0.30100
H3635       H  0.70727323  0.82053445  0.84197369     0.14100
H3636       H  0.64784974  0.79637439  0.81307190     0.14700
C3637       C  0.84558114  0.80664207  0.66376686    -0.14900
C3638       C  0.82006137  0.81632586  0.67709291    -0.30100
H3639       H  0.85112970  0.78151470  0.66501292     0.14100
H3640       H  0.81317106  0.84090802  0.67387867     0.14700
C3641       C  0.70034814  0.68016688  0.82738468    -0.14900
C3642       C  0.67624424  0.66263801  0.81860263    -0.30100
H3643       H  0.70582904  0.68227302  0.85144412     0.14100
H3644       H  0.67022612  0.66182258  0.79454732     0.14700
C3645       C  0.65847347  0.81057817  0.68120845    -0.14900
C3646       C  0.67891864  0.82057166  0.70242940    -0.30100
H3647       H  0.65571401  0.78515430  0.67790168     0.14100
H3648       H  0.68328476  0.84581649  0.70514593     0.14700
C3649       C  0.79905267  0.69157896  0.66687181    -0.14900
C3650       C  0.82202250  0.67153375  0.67421729    -0.30100
H3651       H  0.79433632  0.69763248  0.64317149     0.14100
H3652       H  0.82717638  0.66654968  0.69807015     0.14700
C3653       C  0.68944993  0.70455899  0.66568434    -0.14900
C3654       C  0.66891529  0.68218891  0.67422190    -0.30100
H3655       H  0.69169053  0.71087210  0.64184061     0.14100
H3656       H  0.66611115  0.67731953  0.69830296     0.14700
loop_ 
_geom_bond_atom_site_label_1 
_geom_bond_atom_site_label_2 
_geom_bond_distance 
_geom_bond_site_symmetry_2 
_ccdc_geom_bond_type 
O1            C9   1.257       .  A
O1          Co21   1.973       .  S
O2           C10   1.268       .  A
O2          Co22   1.978       .  S
O3           C11   1.301       .  A
O3          Co23   2.116       .  S
O4           C12   1.269       .  A
O4          Co24   2.011       .  S
O5           C11   1.265       .  A
O5          Co22   1.905       .  S
O6           C12   1.267       .  A
O6          Co21   1.972       .  S
O7           C10   1.282       .  A
O7          Co24   2.052       .  S
O8            C9   1.268       .  A
O8          Co23   2.031       .  S
C9          C454   1.494       .  S
C10         C430   1.492       .  S
C11         C450   1.492       .  S
C12         C442   1.480       .  S
O13          C26   1.268       .  A
O13         Co21   2.013       .  S
O14          C27   1.299       .  A
O14         Co22   2.119       .  S
O15          C28   1.264       .  A
O15         Co23   1.977       .  S
O16          C29   1.255       .  A
O16         Co24   1.962       .  S
O17          C29   1.263       .  A
O17         Co22   2.018       .  S
O18          C28   1.282       .  A
O18         Co21   2.039       .  S
O19          C26   1.267       .  A
O19         Co24   1.989       .  S
O20          C27   1.262       .  A
O20         Co23   1.898       .  S
Co21         O25   2.054       .  S
Co22         O25   2.039       .  S
Co23         O25   2.027       .  S
Co24         O25   2.052       .  S
C26         C435   1.491       .  S
C27         C439   1.485       .  S
C28         C447   1.484       .  S
C29         C427   1.479       .  S
C30          C31   1.534       .  S
C30          C36   1.539       .  S
C30          C34   1.538       .  S
C30         C426   1.511       .  S
C31          H38   1.086       .  S
C31          C32   1.362       .  D
C32          C33   1.542       .  S
C32         C422   1.479       .  S
C33          C37   1.545       .  S
C33          C35   1.542       .  S
C33          H39   1.104       .  S
C34          H40   1.086       .  S
C34          C35   1.366       .  D
C35         C418   1.484       .  S
C36          H41   1.087       .  S
C36          C37   1.364       .  D
C37         C414   1.492       .  S
C42          C43   1.549       .  S
C42          C48   1.547       .  S
C42          C46   1.547       .  S
C42         C431   1.530       .  S
C43          H50   1.086       .  S
C43          C44   1.371       .  D
C44          C45   1.526       .  S
C44         C403   1.481       .  S
C45          C49   1.534       .  S
C45          C47   1.533       .  S
C45          H51   1.111       .  S
C46          H52   1.086       .  S
C46          C47   1.368       .  D
C47         C410   1.489       .  S
C48          H53   1.086       .  S
C48          C49   1.368       .  D
C49         C407   1.485       .  S
C54          C55   1.544       .  S
C54          C60   1.550       .  S
C54          C58   1.553       .  S
C54         C434   1.528       .  S
C55          H62   1.086       .  S
C55          C56   1.367       .  D
C56          C57   1.529       .  S
C56         C398   1.482       .  S
C57          C61   1.528       .  S
C57          C59   1.528       .  S
C57          H63   1.112       .  S
C58          H64   1.086       .  S
C58          C59   1.372       .  D
C59         C391   1.487       .  S
C60          H65   1.085       .  S
C60          C61   1.370       .  D
C61         C394   1.483       .  S
C66          C67   1.535       .  S
C66          C72   1.541       .  S
C66          C70   1.549       .  S
C66         C443   1.513       .  S
C67          H74   1.087       .  S
C67          C68   1.358       .  D
C68          C69   1.538       .  S
C68         C378   1.479       .  S
C69          C73   1.531       .  S
C69          C71   1.534       .  S
C69          H75   1.109       .  S
C70          H76   1.085       .  S
C70          C71   1.372       .  D
C71         C387   1.488       .  S
C72          H77   1.085       .  S
C72          C73   1.369       .  D
C73         C382   1.479       .  S
N78          C83   1.355       .  A
N78        C1910   1.358   1_455  A
N78         H110   1.034       .  S
N79          C87   1.353   1_565  A
N79        C1000   1.353       .  A
N80          C85   1.353   1_655  A
N80        C1912   1.349       .  A
N80         H111   1.036       .  S
N81          C89   1.352   1_565  A
N81        C1002   1.350       .  A
C82        N1906   1.354       .  A
C82          C90   1.388       .  A
C82          C98   1.415       .  A
C83          C99   1.424       .  A
C83          C91   1.388       .  A
C84        N1908   1.357       .  A
C84          C92   1.389       .  A
C84         C101   1.420       .  A
C85         C100   1.415       .  A
C85          C93   1.387       .  A
C86         N993   1.351       .  A
C86          C98   1.411       .  A
C86          C94   1.386       .  A
C87         C101   1.414       .  A
C87          C95   1.385       .  A
C88         N995   1.354       .  A
C88          C96   1.388       .  A
C88          C99   1.419       .  A
C89          C97   1.386       .  A
C89         C100   1.411       .  A
C90        C1919   1.375       .  A
C90         H102   1.082       .  S
C91        C1918   1.374   1_455  A
C91         H103   1.082       .  S
C92        C1921   1.371       .  A
C92         H104   1.082       .  S
C93        C1920   1.370   1_455  A
C93         H105   1.080       .  S
C94        C1009   1.370       .  A
C94         H106   1.083       .  S
C95        C1008   1.372   1_545  A
C95         H107   1.082       .  S
C96        C1011   1.372       .  A
C96         H108   1.082       .  S
C97        C1010   1.372   1_545  A
C97         H109   1.082       .  S
C98         C423   1.482       .  S
C99         C395   1.495       .  S
C100        C379   1.483       .  S
C101        C406   1.491       .  S
C112        C113   1.542       .  S
C112        C118   1.547       .  S
C112        C116   1.550       .  S
C112        C438   1.526       .  S
C113        H120   1.086       .  S
C113        C114   1.365       .  D
C114        C115   1.538       .  S
C114        C370   1.482       .  S
C115        C119   1.527       .  S
C115        C117   1.530       .  S
C115        H121   1.110       .  S
C116        H122   1.086       .  S
C116        C117   1.370       .  D
C117        C367   1.486       .  S
C118        H123   1.086       .  S
C118        C119   1.367       .  D
C119        C375   1.477       .  S
C124        C125   1.537       .  S
C124        C130   1.557       .  S
C124        C128   1.532       .  S
C124        C446   1.521       .  S
C125        H132   1.086       .  S
C125        C126   1.364       .  D
C126        C127   1.543       .  S
C126        C363   1.485       .  S
C127        C131   1.538       .  S
C127        C129   1.534       .  S
C127        H133   1.111       .  S
C128        H134   1.086       .  S
C128        C129   1.358       .  D
C129        C354   1.481       .  S
C130        H135   1.085       .  S
C130        C131   1.382       .  D
C131        C358   1.499       .  S
N136        C140   1.355       .  A
N136        C598   1.355   1_554  A
N136        H168   1.037       .  S
N137        C144   1.349       .  A
N137       C1973   1.351   1_455  A
N138        C142   1.357       .  A
N138        C600   1.356   1_554  A
N138        H169   1.040       .  S
N139        C146   1.355       .  A
N139       C1975   1.354   1_455  A
C140        C148   1.388       .  A
C140        C156   1.416       .  A
C141        N593   1.356       .  A
C141        C157   1.418       .  A
C141        C149   1.387       .  A
C142        C150   1.386       .  A
C142        C159   1.417       .  A
C143        N595   1.356       .  A
C143        C158   1.422       .  A
C143        C151   1.389       .  A
C144        C156   1.410       .  A
C144        C152   1.386       .  A
C145       N1965   1.354       .  A
C145        C159   1.415       .  A
C145        C153   1.386       .  A
C146        C154   1.387       .  A
C146        C157   1.420       .  A
C147       N1967   1.352       .  A
C147        C155   1.388       .  A
C147        C158   1.416       .  A
C148        C606   1.372   1_554  A
C148        H160   1.082       .  S
C149        C605   1.376       .  A
C149        H161   1.083       .  S
C150        C608   1.373   1_554  A
C150        H162   1.082       .  S
C151        C607   1.375       .  A
C151        H163   1.082       .  S
C152       C1981   1.370   1_455  A
C152        H164   1.082       .  S
C153       C1980   1.374       .  A
C153        H165   1.082       .  S
C154       C1983   1.373   1_455  A
C154        H166   1.082       .  S
C155       C1982   1.372       .  A
C155        H167   1.083       .  S
C156        C355   1.481       .  S
C157        C390   1.501       .  S
C158        C419   1.488       .  S
C159        C366   1.498       .  S
C170        C171   1.538       .  S
C170        C176   1.552       .  S
C170        C174   1.550       .  S
C170        C455   1.529       .  S
C171        H178   1.086       .  S
C171        C172   1.361       .  D
C172        C173   1.536       .  S
C172        C347   1.481       .  S
C173        C177   1.533       .  S
C173        C175   1.530       .  S
C173        H179   1.110       .  S
C174        H180   1.086       .  S
C174        C175   1.372       .  D
C175        C343   1.483       .  S
C176        H181   1.085       .  S
C176        C177   1.375       .  D
C177        C350   1.493       .  S
N182        C187   1.357       .  A
N182       C2014   1.356   1_455  A
N182        H214   1.040       .  S
N183        C191   1.355       .  A
N183       C1104   1.356   1_545  A
N184        C189   1.356   1_655  A
N184       C2016   1.355       .  A
N184        H215   1.039       .  S
N185        C193   1.354       .  A
N185       C1106   1.351   1_545  A
C186       N2010   1.350       .  A
C186        C194   1.387       .  A
C186        C202   1.410       .  A
C187        C203   1.419       .  A
C187        C195   1.387       .  A
C188       N2012   1.354       .  A
C188        C196   1.386       .  A
C188        C205   1.420       .  A
C189        C204   1.419       .  A
C189        C197   1.386       .  A
C190       N1097   1.355       .  A
C190        C202   1.414       .  A
C190        C198   1.385       .  A
C191        C205   1.419       .  A
C191        C199   1.387       .  A
C192       N1099   1.352       .  A
C192        C200   1.385       .  A
C192        C203   1.410       .  A
C193        C201   1.386       .  A
C193        C204   1.415       .  A
C194       C2023   1.376       .  A
C194        H206   1.083       .  S
C195       C2022   1.372   1_455  A
C195        H207   1.082       .  S
C196       C2025   1.376       .  A
C196        H208   1.082       .  S
C197       C2024   1.377   1_455  A
C197        H209   1.082       .  S
C198       C1113   1.376       .  A
C198        H210   1.082       .  S
C199       C1112   1.373   1_545  A
C199        H211   1.082       .  S
C200       C1115   1.372       .  A
C200        H212   1.082       .  S
C201       C1114   1.373   1_545  A
C201        H213   1.082       .  S
C202        C374   1.494       .  S
C203        C362   1.491       .  S
C204        C351   1.495       .  S
C205        C338   1.495       .  S
N216        C221   1.360       .  A
N216        C677   1.354   1_554  A
N216        H248   1.036   1_554  S
N217        C225   1.352       .  A
N217       C1138   1.353   1_545  A
N218        C223   1.352   1_556  A
N218        C679   1.358       .  A
N218        H249   1.039       .  S
N219        C227   1.351       .  A
N219       C1140   1.356   1_545  A
C220        N673   1.355       .  A
C220        C228   1.389       .  A
C220        C236   1.418       .  A
C221        C237   1.423       .  A
C221        C229   1.386       .  A
C222        N675   1.353       .  A
C222        C230   1.386       .  A
C222        C239   1.418       .  A
C223        C238   1.414       .  A
C223        C231   1.387       .  A
C224       N1131   1.352       .  A
C224        C236   1.414       .  A
C224        C232   1.386       .  A
C225        C239   1.414       .  A
C225        C233   1.387       .  A
C226       N1133   1.358       .  A
C226        C234   1.386       .  A
C226        C237   1.423       .  A
C227        C235   1.387       .  A
C227        C238   1.418       .  A
C228        C686   1.376       .  A
C228        H240   1.083       .  S
C229        C685   1.378   1_554  A
C229        H241   1.082       .  S
C230        C688   1.376       .  A
C230        H242   1.082       .  S
C231        C687   1.375   1_554  A
C231        H243   1.083       .  S
C232       C1147   1.374       .  A
C232        H244   1.082       .  S
C233       C1146   1.371   1_545  A
C233        H245   1.083       .  S
C234       C1149   1.370       .  A
C234        H246   1.081       .  S
C235       C1148   1.375   1_545  A
C235        H247   1.082       .  S
C236        C399   1.489       .  S
C237        C359   1.510       .  S
C238        C346   1.482       .  S
C239        C383   1.487       .  S
N250        C255   1.356   1_655  A
N250       C2082   1.358       .  A
N250        H282   1.041       .  S
N251        C258   1.356   1_556  A
N251        C716   1.352       .  A
N252        C257   1.358       .  A
N252       C2084   1.358   1_455  A
N252        H283   1.037       .  S
N253        C260   1.353       .  A
N253        C718   1.353   1_554  A
C254       N2078   1.359       .  A
C254        C262   1.386       .  A
C254        C270   1.420       .  A
C255        C271   1.420       .  A
C255        C263   1.387   1_455  A
C256       N2080   1.359       .  A
C256        C264   1.386       .  A
C256        C273   1.417       .  A
C257        C272   1.423       .  A
C257        C265   1.387       .  A
C258        C270   1.414       .  A
C258        C266   1.384       .  A
C259        N708   1.354       .  A
C259        C273   1.413       .  A
C259        C267   1.385       .  A
C260        C268   1.387       .  A
C260        C271   1.417       .  A
C261        N710   1.354       .  A
C261        C269   1.386       .  A
C261        C272   1.416       .  A
C262       C2091   1.373       .  A
C262        H274   1.082       .  S
C263       C2090   1.378       .  A
C263        H275   1.083   1_655  S
C264       C2093   1.374       .  A
C264        H276   1.083       .  S
C265       C2092   1.373   1_455  A
C265        H277   1.082       .  S
C266        C724   1.371   1_554  A
C266        H278   1.082       .  S
C267        C723   1.371       .  A
C267        H279   1.082       .  S
C268        C726   1.374   1_554  A
C268        H280   1.082       .  S
C269        C725   1.374       .  A
C269        H281   1.082       .  S
C270        C334   1.498       .  S
C271        C342   1.498       .  S
C272        C386   1.498       .  S
C273        C411   1.497       .  S
C284        C285   1.544       .  S
C284        C290   1.544       .  S
C284        C288   1.549       .  S
C284        C451   1.535       .  S
C285        H292   1.086       .  S
C285        C286   1.368       .  D
C286        C287   1.529       .  S
C286        C339   1.483       .  S
C287        C291   1.543       .  S
C287        C289   1.544       .  S
C287        H293   1.101       .  S
C288        H294   1.086       .  S
C288        C289   1.372       .  D
C289        C335   1.507       .  S
C290        H295   1.083       .  S
C290        C291   1.367       .  D
C291        C330   1.490       .  S
N296        C300   1.353   1_556  A
N296        C758   1.354       .  A
N296        H328   1.036       .  S
N297        C305   1.353       .  A
N297       C1218   1.356       .  A
N298        C302   1.355       .  A
N298        C760   1.358   1_554  A
N298        H329   1.038       .  S
N299        C307   1.352       .  A
N299       C1220   1.351       .  A
C300        C308   1.385       .  A
C300        C316   1.411       .  A
C301        N753   1.353       .  A
C301        C317   1.414       .  A
C301        C309   1.387       .  A
C302        C310   1.388       .  A
C302        C319   1.419       .  A
C303        N755   1.356       .  A
C303        C318   1.418       .  A
C303        C311   1.387       .  A
C304       N1211   1.354       .  A
C304        C316   1.416       .  A
C304        C312   1.385       .  A
C305        C319   1.417       .  A
C305        C313   1.388       .  A
C306       N1213   1.355       .  A
C306        C314   1.387       .  A
C306        C317   1.418       .  A
C307        C315   1.385       .  A
C307        C318   1.414       .  A
C308        C766   1.373   1_554  A
C308        H320   1.083       .  S
C309        C765   1.374       .  A
C309        H321   1.083       .  S
C310        C768   1.374   1_554  A
C310        H322   1.082       .  S
C311        C767   1.373       .  A
C311        H323   1.082       .  S
C312       C1227   1.372   1_545  A
C312        H324   1.082       .  S
C313       C1226   1.369       .  A
C313        H325   1.082       .  S
C314       C1229   1.374   1_545  A
C314        H326   1.082       .  S
C315       C1228   1.373       .  A
C315        H327   1.082       .  S
C316        C331   1.486       .  S
C317        C402   1.495       .  S
C318        C415   1.489       .  S
C319        C371   1.485       .  S
C330        H332   1.087       .  S
C330        C331   1.343       .  D
C331        H333   1.083       .  S
C334        H336   1.080       .  S
C334        C335   1.351       .  D
C335        H337   1.086       .  S
C338        H340   1.086       .  S
C338        C339   1.344       .  D
C339        H341   1.087       .  S
C342        H344   1.086       .  S
C342        C343   1.346       .  D
C343        H345   1.087       .  S
C346        H348   1.085       .  S
C346        C347   1.340       .  D
C347        H349   1.087       .  S
C350        H352   1.087       .  S
C350        C351   1.344       .  D
C351        H353   1.084       .  S
C354        H356   1.087       .  S
C354        C355   1.348       .  D
C355        H357   1.085       .  S
C358        H360   1.087       .  S
C358        C359   1.349       .  D
C359        H361   1.085       .  S
C362        H364   1.087       .  S
C362        C363   1.343       .  D
C363        H365   1.087       .  S
C366        H368   1.086       .  S
C366        C367   1.344       .  D
C367        H369   1.087       .  S
C370        H372   1.087       .  S
C370        C371   1.342       .  D
C371        H373   1.085       .  S
C374        H376   1.086       .  S
C374        C375   1.346       .  D
C375        H377   1.087       .  S
C378        H380   1.087       .  S
C378        C379   1.340       .  D
C379        H381   1.084       .  S
C382        H384   1.087       .  S
C382        C383   1.341       .  D
C383        H385   1.086       .  S
C386        H388   1.086       .  S
C386        C387   1.346       .  D
C387        H389   1.087       .  S
C390        H392   1.086       .  S
C390        C391   1.345       .  D
C391        H393   1.087       .  S
C394        H396   1.088       .  S
C394        C395   1.343       .  D
C395        H397   1.086       .  S
C398        H400   1.087       .  S
C398        C399   1.342       .  D
C399        H401   1.086       .  S
C402        H404   1.086       .  S
C402        C403   1.341       .  D
C403        H405   1.087       .  S
C406        H408   1.087       .  S
C406        C407   1.346       .  D
C407        H409   1.086       .  S
C410        H412   1.087       .  S
C410        C411   1.347       .  D
C411        H413   1.086       .  S
C414        H416   1.087       .  S
C414        C415   1.343       .  D
C415        H417   1.082       .  S
C418        H420   1.087       .  S
C418        C419   1.343       .  D
C419        H421   1.086       .  S
C422        H424   1.087       .  S
C422        C423   1.339       .  D
C423        H425   1.086       .  S
C426        H428   1.087       .  S
C426        C427   1.348       .  D
C427        H429   1.086       .  S
C430        H432   1.086       .  S
C430        C431   1.352       .  D
C431        H433   1.087       .  S
C434        H436   1.087       .  S
C434        C435   1.348       .  D
C435        H437   1.087       .  S
C438        H440   1.087       .  S
C438        C439   1.346       .  D
C439        H441   1.087       .  S
C442        H444   1.086       .  S
C442        C443   1.341       .  D
C443        H445   1.087       .  S
C446        H448   1.088       .  S
C446        C447   1.342       .  D
C447        H449   1.086       .  S
C450        H452   1.081       .  S
C450        C451   1.359       .  D
C451        H453   1.087       .  S
C454        H456   1.086       .  S
C454        C455   1.358       .  D
C455        H457   1.086       .  S
O458        C466   1.270       .  A
O458       Co478   1.982       .  S
O459        C467   1.259       .  A
O459       Co479   1.974       .  S
O460        C468   1.267       .  A
O460       Co480   1.999       .  S
O461        C469   1.292       .  A
O461       Co481   2.098       .  S
O462        C468   1.267       .  A
O462       Co479   1.973       .  S
O463        C469   1.271       .  A
O463       Co478   1.922       .  S
O464        C467   1.266       .  A
O464       Co481   2.021       .  S
O465        C466   1.283       .  A
O465       Co480   2.056       .  S
C466        C911   1.499       .  S
C467        C887   1.485       .  S
C468        C907   1.472       .  S
C469        C899   1.492       .  S
O470        C483   1.290       .  A
O470       Co478   2.088       .  S
O471        C484   1.269       .  A
O471       Co479   2.009       .  S
O472        C485   1.259       .  A
O472       Co480   1.965       .  S
O473        C486   1.268       .  A
O473       Co481   1.981       .  S
O474        C486   1.282       .  A
O474       Co479   2.044       .  S
O475        C485   1.270       .  A
O475       Co478   2.027       .  S
O476        C483   1.269       .  A
O476       Co481   1.920       .  S
O477        C484   1.270       .  A
O477       Co480   1.992       .  S
Co478       O482   2.023       .  S
Co479       O482   2.041       .  S
Co480       O482   2.051       .  S
Co481       O482   2.032       .  S
C483        C892   1.477       .  S
C484        C896   1.488       .  S
C485        C904   1.482       .  S
C486        C884   1.491       .  S
C487        C488   1.545       .  S
C487        C493   1.548       .  S
C487        C491   1.538       .  S
C487        C883   1.527       .  S
C488        H495   1.085       .  S
C488        C489   1.374       .  D
C489        C490   1.532       .  S
C489        C879   1.485       .  S
C490        C494   1.544       .  S
C490        C492   1.535       .  S
C490        H496   1.110       .  S
C491        H497   1.087       .  S
C491        C492   1.356       .  D
C492        C875   1.480       .  S
C493        H498   1.086       .  S
C493        C494   1.375       .  D
C494        C871   1.497       .  S
C499        C500   1.544       .  S
C499        C505   1.542       .  S
C499        C503   1.545       .  S
C499        C888   1.518       .  S
C500        H507   1.086       .  S
C500        C501   1.369       .  D
C501        C502   1.528       .  S
C501        C860   1.476       .  S
C502        C506   1.537       .  S
C502        C504   1.537       .  S
C502        H508   1.107       .  S
C503        H509   1.086       .  S
C503        C504   1.368       .  D
C504        C867   1.491       .  S
C505        H510   1.086       .  S
C505        C506   1.363       .  D
C506        C864   1.485       .  S
C511        C512   1.543       .  S
C511        C517   1.554       .  S
C511        C515   1.543       .  S
C511        C891   1.530       .  S
C512        H519   1.085       .  S
C512        C513   1.370       .  D
C513        C514   1.532       .  S
C513        C855   1.486       .  S
C514        C518   1.534       .  S
C514        C516   1.533       .  S
C514        H520   1.110       .  S
C515        H521   1.085       .  S
C515        C516   1.369       .  D
C516        C848   1.485       .  S
C517        H522   1.081       .  S
C517        C518   1.362       .  D
C518        C851   1.485       .  S
C523        C524   1.536       .  S
C523        C529   1.564       .  S
C523        C527   1.541       .  S
C523        C900   1.530       .  S
C524        H531   1.087       .  S
C524        C525   1.362       .  D
C525        C526   1.534       .  S
C525        C835   1.472       .  S
C526        C530   1.529       .  S
C526        C528   1.535       .  S
C526        H532   1.110       .  S
C527        H533   1.087       .  S
C527        C528   1.362       .  D
C528        C844   1.488       .  S
C529        H534   1.084       .  S
C529        C530   1.379       .  D
C530        C839   1.493       .  S
N535        C540   1.357   1_655  A
N535       C2367   1.354       .  A
N535        H567   1.038       .  S
N536       C1457   1.351       .  A
N536        C544   1.352   1_565  A
N537        C542   1.349   1_655  A
N537       C2369   1.353       .  A
N537        H568   1.039       .  S
N538       C1459   1.352       .  A
N538        C546   1.352   1_565  A
C539       N2363   1.354       .  A
C539        C547   1.388       .  A
C539        C555   1.417       .  A
C540        C556   1.418       .  A
C540        C548   1.387       .  A
C541       N2365   1.353       .  A
C541        C549   1.387       .  A
C541        C558   1.414       .  A
C542        C557   1.409       .  A
C542        C550   1.387       .  A
C543       N1450   1.354       .  A
C543        C555   1.415       .  A
C543        C551   1.387       .  A
C544        C558   1.413       .  A
C544        C552   1.387       .  A
C545       N1452   1.352       .  A
C545        C553   1.386       .  A
C545        C556   1.410       .  A
C546        C554   1.386       .  A
C546        C557   1.410       .  A
C547       C2376   1.374       .  A
C547        H559   1.082       .  S
C548       C2375   1.372   1_455  A
C548        H560   1.081       .  S
C549       C2378   1.376       .  A
C549        H561   1.081       .  S
C550       C2377   1.373   1_455  A
C550        H562   1.082       .  S
C551       C1466   1.373       .  A
C551        H563   1.082       .  S
C552       C1465   1.372   1_545  A
C552        H564   1.082       .  S
C553       C1468   1.369       .  A
C553        H565   1.083       .  S
C554       C1467   1.370   1_545  A
C554        H566   1.083       .  S
C555        C880   1.489       .  S
C556        C852   1.489       .  S
C557        C836   1.475       .  S
C558        C863   1.483       .  S
C569        C570   1.544       .  S
C569        C575   1.551       .  S
C569        C573   1.551       .  S
C569        C895   1.526       .  S
C570        H577   1.085       .  S
C570        C571   1.368       .  D
C571        C572   1.524       .  S
C571        C827   1.476       .  S
C572        C576   1.528       .  S
C572        C574   1.527       .  S
C572        H578   1.112       .  S
C573        H579   1.086       .  S
C573        C574   1.369       .  D
C574        C824   1.486       .  S
C575        H580   1.085       .  S
C575        C576   1.372       .  D
C576        C832   1.484       .  S
C581        C582   1.536       .  S
C581        C587   1.551       .  S
C581        C585   1.541       .  S
C581        C903   1.517       .  S
C582        H589   1.087       .  S
C582        C583   1.361       .  D
C583        C584   1.540       .  S
C583        C820   1.483       .  S
C584        C588   1.532       .  S
C584        C586   1.536       .  S
C584        H590   1.109       .  S
C585        H591   1.086       .  S
C585        C586   1.368       .  D
C586        C811   1.485       .  S
C587        H592   1.086       .  S
C587        C588   1.372       .  D
C588        C815   1.487       .  S
N593        C597   1.356       .  A
N593        H625   1.040       .  S
N594        C601   1.354       .  A
N594       C2430   1.354   1_455  A
N595        C599   1.359       .  A
N595        H626   1.039       .  S
N596        C603   1.354       .  A
N596       C2432   1.353   1_455  A
C597        C605   1.388       .  A
C597        C613   1.420       .  A
C598        C614   1.416       .  A
C598        C606   1.387       .  A
C599        C607   1.387       .  A
C599        C616   1.421       .  A
C600        C615   1.420       .  A
C600        C608   1.388       .  A
C601        C613   1.416       .  A
C601        C609   1.386       .  A
C602       N2422   1.353       .  A
C602        C616   1.417       .  A
C602        C610   1.386       .  A
C603        C611   1.386       .  A
C603        C614   1.418       .  A
C604       N2424   1.352       .  A
C604        C612   1.387       .  A
C604        C615   1.414       .  A
C605        H617   1.082       .  S
C606        H618   1.082       .  S
C607        H619   1.082       .  S
C608        H620   1.081       .  S
C609       C2438   1.374   1_455  A
C609        H621   1.082       .  S
C610       C2437   1.374       .  A
C610        H622   1.082       .  S
C611       C2440   1.371   1_455  A
C611        H623   1.082       .  S
C612       C2439   1.374       .  A
C612        H624   1.083       .  S
C613        C812   1.496       .  S
C614        C847   1.492       .  S
C615        C876   1.490       .  S
C616        C823   1.503       .  S
C627        C628   1.538       .  S
C627        C633   1.555       .  S
C627        C631   1.550       .  S
C627        C912   1.535       .  S
C628        H635   1.086       .  S
C628        C629   1.366       .  D
C629        C630   1.542       .  S
C629        C804   1.488       .  S
C630        C634   1.532       .  S
C630        C632   1.527       .  S
C630        H636   1.108       .  S
C631        H637   1.086       .  S
C631        C632   1.367       .  D
C632        C800   1.489       .  S
C633        H638   1.085       .  S
C633        C634   1.378       .  D
C634        C807   1.492       .  S
N639        C644   1.352   1_655  A
N639       C2471   1.353       .  A
N639        H671   1.036       .  S
N640       C1561   1.355   1_545  A
N640        C648   1.352       .  A
N641        C646   1.358       .  A
N641       C2473   1.354   1_455  A
N641        H672   1.036       .  S
N642       C1563   1.354   1_545  A
N642        C650   1.355       .  A
C643       N2467   1.357       .  A
C643        C651   1.389       .  A
C643        C659   1.422       .  A
C644        C660   1.415       .  A
C644        C652   1.388       .  A
C645       N2469   1.354       .  A
C645        C653   1.390       .  A
C645        C662   1.422       .  A
C646        C661   1.422       .  A
C646        C654   1.387       .  A
C647       N1554   1.355       .  A
C647        C659   1.416       .  A
C647        C655   1.386       .  A
C648        C662   1.418       .  A
C648        C656   1.389       .  A
C649       N1556   1.353       .  A
C649        C657   1.385       .  A
C649        C660   1.414       .  A
C650        C658   1.386       .  A
C650        C661   1.418       .  A
C651       C2480   1.368       .  A
C651        H663   1.081       .  S
C652       C2479   1.373   1_455  A
C652        H664   1.080       .  S
C653       C2482   1.374       .  A
C653        H665   1.082       .  S
C654       C2481   1.379   1_455  A
C654        H666   1.082       .  S
C655       C1570   1.374       .  A
C655        H667   1.082       .  S
C656       C1569   1.372   1_545  A
C656        H668   1.083       .  S
C657       C1572   1.370       .  A
C657        H669   1.083       .  S
C658       C1571   1.374   1_545  A
C658        H670   1.082       .  S
C659        C831   1.496       .  S
C660        C819   1.484       .  S
C661        C808   1.501       .  S
C662        C795   1.482       .  S
N673        C678   1.356       .  A
N673        H705   1.040       .  S
N674       C1595   1.354   1_545  A
N674        C682   1.358       .  A
N675        C680   1.353       .  A
N675        H706   1.034       .  S
N676       C1597   1.354       .  A
N676        C684   1.353   1_565  A
C677        C685   1.389       .  A
C677        C693   1.422       .  A
C678        C694   1.417       .  A
C678        C686   1.386       .  A
C679        C687   1.387       .  A
C679        C696   1.420       .  A
C680        C695   1.419       .  A
C680        C688   1.389       .  A
C681       N1588   1.353       .  A
C681        C693   1.424       .  A
C681        C689   1.389       .  A
C682        C696   1.420       .  A
C682        C690   1.385       .  A
C683       N1590   1.353       .  A
C683        C691   1.386       .  A
C683        C694   1.416       .  A
C684        C692   1.387       .  A
C684        C695   1.416       .  A
C685        H697   1.082       .  S
C686        H698   1.083       .  S
C687        H699   1.082       .  S
C688        H700   1.080       .  S
C689       C1604   1.375       .  A
C689        H701   1.082       .  S
C690       C1603   1.375   1_545  A
C690        H702   1.082       .  S
C691       C1606   1.374       .  A
C691        H703   1.082       .  S
C692       C1605   1.371   1_545  A
C692        H704   1.081       .  S
C693        C856   1.490       .  S
C694        C816   1.496       .  S
C695        C803   1.486       .  S
C696        C840   1.512       .  S
N707        C712   1.356       .  A
N707       C2539   1.357   1_455  A
N707        H739   1.039       .  S
N708        C715   1.353       .  A
N709        C714   1.356   1_655  A
N709       C2541   1.354       .  A
N709        H740   1.042       .  S
N710        C717   1.354       .  A
C711       N2535   1.358       .  A
C711        C719   1.387       .  A
C711        C727   1.422       .  A
C712        C728   1.418       .  A
C712        C720   1.387       .  A
C713       N2537   1.358       .  A
C713        C721   1.389       .  A
C713        C730   1.425       .  A
C714        C729   1.418       .  A
C714        C722   1.389       .  A
C715        C727   1.414       .  A
C715        C723   1.387       .  A
C716        C730   1.418       .  A
C716        C724   1.388       .  A
C717        C725   1.386       .  A
C717        C728   1.416       .  A
C718        C726   1.384       .  A
C718        C729   1.411       .  A
C719       C2548   1.374       .  A
C719        H731   1.082       .  S
C720       C2547   1.375   1_455  A
C720        H732   1.083       .  S
C721       C2550   1.376       .  A
C721        H733   1.082       .  S
C722       C2549   1.375   1_455  A
C722        H734   1.082       .  S
C723        H735   1.083       .  S
C724        H736   1.083       .  S
C725        H737   1.082       .  S
C726        H738   1.082       .  S
C727        C791   1.490       .  S
C728        C799   1.492       .  S
C729        C843   1.493       .  S
C730        C868   1.491       .  S
C741        C742   1.535       .  S
C741        C747   1.535       .  S
C741        C745   1.544       .  S
C741        C908   1.509       .  S
C742        H749   1.084       .  S
C742        C743   1.366       .  D
C743        C744   1.534       .  S
C743        C796   1.482       .  S
C744        C748   1.540       .  S
C744        C746   1.542       .  S
C744        H750   1.109       .  S
C745        H751   1.086       .  S
C745        C746   1.369       .  D
C746        C792   1.489       .  S
C747        H752   1.086       .  S
C747        C748   1.359       .  D
C748        C787   1.477       .  S
N753        C757   1.355       .  A
N753        H785   1.041       .  S
N754       C1675   1.353       .  A
N754        C762   1.352       .  A
N755        C759   1.352       .  A
N755        H786   1.034       .  S
N756       C1677   1.353       .  A
N756        C764   1.355       .  A
C757        C765   1.388       .  A
C757        C773   1.415       .  A
C758        C774   1.419       .  A
C758        C766   1.389       .  A
C759        C767   1.390       .  A
C759        C776   1.421       .  A
C760        C775   1.421       .  A
C760        C768   1.387       .  A
C761       N1668   1.350   1_545  A
C761        C773   1.407       .  A
C761        C769   1.386       .  A
C762        C776   1.418       .  A
C762        C770   1.388       .  A
C763       N1670   1.353       .  A
C763        C771   1.387       .  A
C763        C774   1.418       .  A
C764        C772   1.384       .  A
C764        C775   1.415       .  A
C765        H777   1.082       .  S
C766        H778   1.082       .  S
C767        H779   1.082       .  S
C768        H780   1.082       .  S
C769       C1684   1.371   1_545  A
C769        H781   1.083       .  S
C770       C1683   1.373       .  A
C770        H782   1.082       .  S
C771       C1686   1.372   1_545  A
C771        H783   1.082       .  S
C772       C1685   1.373       .  A
C772        H784   1.082       .  S
C773        C788   1.483       .  S
C774        C859   1.490       .  S
C775        C872   1.496       .  S
C776        C828   1.484       .  S
C787        H789   1.087       .  S
C787        C788   1.338       .  D
C788        H790   1.087       .  S
C791        H793   1.086       .  S
C791        C792   1.344       .  D
C792        H794   1.087       .  S
C795        H797   1.083       .  S
C795        C796   1.343       .  D
C796        H798   1.087       .  S
C799        H801   1.085       .  S
C799        C800   1.344       .  D
C800        H802   1.087       .  S
C803        H805   1.083       .  S
C803        C804   1.343       .  D
C804        H806   1.087       .  S
C807        H809   1.087       .  S
C807        C808   1.343       .  D
C808        H810   1.086       .  S
C811        H813   1.087       .  S
C811        C812   1.346       .  D
C812        H814   1.086       .  S
C815        H817   1.087       .  S
C815        C816   1.345       .  D
C816        H818   1.086       .  S
C819        H821   1.084       .  S
C819        C820   1.341       .  D
C820        H822   1.087       .  S
C823        H825   1.086       .  S
C823        C824   1.347       .  D
C824        H826   1.087       .  S
C827        H829   1.088       .  S
C827        C828   1.339       .  D
C828        H830   1.084       .  S
C831        H833   1.085       .  S
C831        C832   1.342       .  D
C832        H834   1.088       .  S
C835        H837   1.087       .  S
C835        C836   1.340       .  D
C836        H838   1.086       .  S
C839        H841   1.086       .  S
C839        C840   1.350       .  D
C840        H842   1.086       .  S
C843        H845   1.086       .  S
C843        C844   1.345       .  D
C844        H846   1.087       .  S
C847        H849   1.085       .  S
C847        C848   1.344       .  D
C848        H850   1.087       .  S
C851        H853   1.086       .  S
C851        C852   1.342       .  D
C852        H854   1.086       .  S
C855        H857   1.087       .  S
C855        C856   1.344       .  D
C856        H858   1.084       .  S
C859        H861   1.086       .  S
C859        C860   1.342       .  D
C860        H862   1.087       .  S
C863        H865   1.085       .  S
C863        C864   1.343       .  D
C864        H866   1.087       .  S
C867        H869   1.086       .  S
C867        C868   1.346       .  D
C868        H870   1.086       .  S
C871        H873   1.086       .  S
C871        C872   1.350       .  D
C872        H874   1.085       .  S
C875        H877   1.087       .  S
C875        C876   1.341       .  D
C876        H878   1.087       .  S
C879        H881   1.087       .  S
C879        C880   1.343       .  D
C880        H882   1.084       .  S
C883        H885   1.088       .  S
C883        C884   1.348       .  D
C884        H886   1.086       .  S
C887        H889   1.086       .  S
C887        C888   1.349       .  D
C888        H890   1.087       .  S
C891        H893   1.087       .  S
C891        C892   1.347       .  D
C892        H894   1.079       .  S
C895        H897   1.087       .  S
C895        C896   1.346       .  D
C896        H898   1.087       .  S
C899        H901   1.083       .  S
C899        C900   1.346       .  D
C900        H902   1.087       .  S
C903        H905   1.087       .  S
C903        C904   1.353       .  D
C904        H906   1.086       .  S
C907        H909   1.087       .  S
C907        C908   1.340       .  D
C908        H910   1.087       .  S
C911        H913   1.086       .  S
C911        C912   1.354       .  D
C912        H914   1.087       .  S
O915        C923   1.254       .  A
O915       Co935   1.963       .  S
O916        C924   1.268       .  A
O916       Co936   1.986       .  S
O917        C925   1.295       .  A
O917       Co937   2.106       .  S
O918        C926   1.274       .  A
O918       Co938   2.043       .  S
O919        C925   1.270       .  A
O919       Co936   1.911       .  S
O920        C926   1.261       .  A
O920       Co935   1.974       .  S
O921        C924   1.279       .  A
O921       Co938   2.042       .  S
O922        C923   1.264       .  A
O922       Co937   2.025       .  S
C923       C1368   1.484       .  S
C924       C1344   1.494       .  S
C925       C1364   1.487       .  S
C926       C1356   1.487       .  S
O927        C940   1.269       .  A
O927       Co935   2.016       .  S
O928        C941   1.300       .  A
O928       Co936   2.128       .  S
O929        C942   1.271       .  A
O929       Co937   1.983       .  S
O930        C943   1.262       .  A
O930       Co938   1.975       .  S
O931        C943   1.269       .  A
O931       Co936   2.022       .  S
O932        C942   1.284       .  A
O932       Co935   2.051       .  S
O933        C940   1.268       .  A
O933       Co938   1.986       .  S
O934        C941   1.264       .  A
O934       Co937   1.905       .  S
Co935       O939   2.044       .  S
Co936       O939   2.048       .  S
Co937       O939   2.030       .  S
Co938       O939   2.069       .  S
C940       C1349   1.489       .  S
C941       C1353   1.501       .  S
C942       C1361   1.495       .  S
C943       C1341   1.487       .  S
C944        C945   1.540       .  S
C944        C950   1.538       .  S
C944        C948   1.540       .  S
C944       C1340   1.518       .  S
C945        H952   1.084       .  S
C945        C946   1.371       .  D
C946        C947   1.538       .  S
C946       C1336   1.485       .  S
C947        C951   1.541       .  S
C947        C949   1.547       .  S
C947        H953   1.110       .  S
C948        H954   1.086       .  S
C948        C949   1.368       .  D
C949       C1332   1.492       .  S
C950        H955   1.087       .  S
C950        C951   1.361       .  D
C951       C1328   1.484       .  S
C956        C957   1.544       .  S
C956        C962   1.553       .  S
C956        C960   1.544       .  S
C956       C1345   1.529       .  S
C957        H964   1.085       .  S
C957        C958   1.370       .  D
C958        C959   1.525       .  S
C958       C1317   1.476       .  S
C959        C963   1.532       .  S
C959        C961   1.531       .  S
C959        H965   1.111       .  S
C960        H966   1.085       .  S
C960        C961   1.366       .  D
C961       C1324   1.485       .  S
C962        H967   1.085       .  S
C962        C963   1.374       .  D
C963       C1321   1.493       .  S
C968        C969   1.538       .  S
C968        C974   1.542       .  S
C968        C972   1.555       .  S
C968       C1348   1.525       .  S
C969        H976   1.085       .  S
C969        C970   1.364       .  D
C970        C971   1.532       .  S
C970       C1312   1.482       .  S
C971        C975   1.535       .  S
C971        C973   1.529       .  S
C971        H977   1.111       .  S
C972        H978   1.085       .  S
C972        C973   1.375       .  D
C973       C1305   1.490       .  S
C974        H979   1.086       .  S
C974        C975   1.366       .  D
C975       C1308   1.478       .  S
C980        C981   1.544       .  S
C980        C986   1.543       .  S
C980        C984   1.547       .  S
C980       C1357   1.529       .  S
C981        H988   1.086       .  S
C981        C982   1.365       .  D
C982        C983   1.538       .  S
C982       C1292   1.490       .  S
C983        C987   1.535       .  S
C983        C985   1.539       .  S
C983        H989   1.111       .  S
C984        H990   1.085       .  S
C984        C985   1.372       .  D
C985       C1301   1.494       .  S
C986        H991   1.085       .  S
C986        C987   1.372       .  D
C987       C1296   1.487       .  S
N992        C997   1.352   1_655  A
N992       C2824   1.353       .  A
N992       H1024   1.037       .  S
N993       C1001   1.354       .  A
N994        C999   1.360       .  A
N994       C2826   1.358   1_455  A
N994       H1025   1.038       .  S
N995       C1003   1.354       .  A
C996       N2820   1.355       .  A
C996       C1004   1.388       .  A
C996       C1012   1.420       .  A
C997       C1013   1.414       .  A
C997       C1005   1.387       .  A
C998       N2822   1.359       .  A
C998       C1006   1.386       .  A
C998       C1015   1.418       .  A
C999       C1014   1.423       .  A
C999       C1007   1.387       .  A
C1000      C1012   1.415       .  A
C1000      C1008   1.387       .  A
C1001      C1015   1.413       .  A
C1001      C1009   1.387       .  A
C1002      C1010   1.389       .  A
C1002      C1013   1.415       .  A
C1003      C1011   1.385       .  A
C1003      C1014   1.416       .  A
C1004      C2833   1.372       .  A
C1004      H1016   1.082       .  S
C1005      C2832   1.377   1_455  A
C1005      H1017   1.082       .  S
C1006      C2835   1.374       .  A
C1006      H1018   1.082       .  S
C1007      C2834   1.371   1_455  A
C1007      H1019   1.082       .  S
C1008      H1020   1.082       .  S
C1009      H1021   1.082       .  S
C1010      H1022   1.082       .  S
C1011      H1023   1.083       .  S
C1012      C1337   1.491       .  S
C1013      C1309   1.482       .  S
C1014      C1293   1.496       .  S
C1015      C1320   1.495       .  S
C1026      C1027   1.546       .  S
C1026      C1032   1.553       .  S
C1026      C1030   1.560       .  S
C1026      C1352   1.543       .  S
C1027      H1034   1.086       .  S
C1027      C1028   1.364       .  D
C1028      C1029   1.531       .  S
C1028      C1284   1.484       .  S
C1029      C1033   1.523       .  S
C1029      C1031   1.529       .  S
C1029      H1035   1.110       .  S
C1030      H1036   1.085       .  S
C1030      C1031   1.377       .  D
C1031      C1281   1.496       .  S
C1032      H1037   1.086       .  S
C1032      C1033   1.371       .  D
C1033      C1289   1.481       .  S
C1038      C1039   1.541       .  S
C1038      C1044   1.557       .  S
C1038      C1042   1.546       .  S
C1038      C1360   1.532       .  S
C1039      H1046   1.086       .  S
C1039      C1040   1.366       .  D
C1040      C1041   1.537       .  S
C1040      C1277   1.486       .  S
C1041      C1045   1.534       .  S
C1041      C1043   1.531       .  S
C1041      H1047   1.110       .  S
C1042      H1048   1.085       .  S
C1042      C1043   1.366       .  D
C1043      C1268   1.488       .  S
C1044      H1049   1.085       .  S
C1044      C1045   1.380       .  D
C1045      C1272   1.501       .  S
N1050      C1512   1.355   1_554  A
N1050      C1054   1.355       .  A
N1050      H1082   1.037       .  S
N1051      C1058   1.353   1_655  A
N1051      C2887   1.352       .  A
N1052      C1514   1.359   1_554  A
N1052      C1056   1.359       .  A
N1052      H1083   1.038       .  S
N1053      C1060   1.356       .  A
N1053      C2889   1.352   1_455  A
C1054      C1062   1.386       .  A
C1054      C1070   1.415       .  A
C1055      N1507   1.357       .  A
C1055      C1071   1.416       .  A
C1055      C1063   1.386       .  A
C1056      C1064   1.388       .  A
C1056      C1073   1.427       .  A
C1057      N1509   1.358       .  A
C1057      C1072   1.423       .  A
C1057      C1065   1.387       .  A
C1058      C1070   1.416       .  A
C1058      C1066   1.386       .  A
C1059      N2879   1.357       .  A
C1059      C1073   1.423       .  A
C1059      C1067   1.387       .  A
C1060      C1068   1.385       .  A
C1060      C1071   1.417       .  A
C1061      N2881   1.354       .  A
C1061      C1069   1.386       .  A
C1061      C1072   1.417       .  A
C1062      C1520   1.373   1_554  A
C1062      H1074   1.082       .  S
C1063      C1519   1.371       .  A
C1063      H1075   1.082       .  S
C1064      C1522   1.372   1_554  A
C1064      H1076   1.081       .  S
C1065      C1521   1.375       .  A
C1065      H1077   1.082       .  S
C1066      C2895   1.372   1_455  A
C1066      H1078   1.082       .  S
C1067      C2894   1.376       .  A
C1067      H1079   1.082       .  S
C1068      C2897   1.372   1_455  A
C1068      H1080   1.082       .  S
C1069      C2896   1.374       .  A
C1069      H1081   1.083       .  S
C1070      C1269   1.492       .  S
C1071      C1304   1.500       .  S
C1072      C1333   1.496       .  S
C1073      C1280   1.508       .  S
C1084      C1085   1.539       .  S
C1084      C1090   1.549       .  S
C1084      C1088   1.546       .  S
C1084      C1369   1.519       .  S
C1085      H1092   1.086       .  S
C1085      C1086   1.360       .  D
C1086      C1087   1.534       .  S
C1086      C1261   1.479       .  S
C1087      C1091   1.532       .  S
C1087      C1089   1.528       .  S
C1087      H1093   1.111       .  S
C1088      H1094   1.085       .  S
C1088      C1089   1.372       .  D
C1089      C1257   1.478       .  S
C1090      H1095   1.086       .  S
C1090      C1091   1.370       .  D
C1091      C1264   1.487       .  S
N1096      C1101   1.357   1_655  A
N1096      C2928   1.358       .  A
N1096      H1128   1.041       .  S
N1097      C1105   1.350       .  A
N1098      C1103   1.358   1_655  A
N1098      C2930   1.357       .  A
N1098      H1129   1.038       .  S
N1099      C1107   1.352       .  A
C1100      N2924   1.354       .  A
C1100      C1108   1.388       .  A
C1100      C1116   1.419       .  A
C1101      C1117   1.421       .  A
C1101      C1109   1.388       .  A
C1102      N2926   1.350       .  A
C1102      C1110   1.387       .  A
C1102      C1119   1.416       .  A
C1103      C1118   1.420       .  A
C1103      C1111   1.385       .  A
C1104      C1116   1.418       .  A
C1104      C1112   1.386       .  A
C1105      C1119   1.414       .  A
C1105      C1113   1.388       .  A
C1106      C1114   1.387       .  A
C1106      C1117   1.412       .  A
C1107      C1115   1.388       .  A
C1107      C1118   1.416       .  A
C1108      C2937   1.375       .  A
C1108      H1120   1.082       .  S
C1109      C2936   1.376   1_455  A
C1109      H1121   1.082       .  S
C1110      C2939   1.378       .  A
C1110      H1122   1.082       .  S
C1111      C2938   1.376   1_455  A
C1111      H1123   1.082       .  S
C1112      H1124   1.082       .  S
C1113      H1125   1.082       .  S
C1114      H1126   1.083       .  S
C1115      H1127   1.082       .  S
C1116      C1288   1.499       .  S
C1117      C1276   1.487       .  S
C1118      C1265   1.498       .  S
C1119      C1252   1.482       .  S
N1130      C1135   1.360       .  A
N1130      C1591   1.352   1_554  A
N1130      H1162   1.038       .  S
N1131      C1139   1.353       .  A
N1132      C1137   1.352   1_556  A
N1132      C1593   1.359       .  A
N1132      H1163   1.035       .  S
N1133      C1141   1.354       .  A
C1134      N1587   1.351       .  A
C1134      C1142   1.386       .  A
C1134      C1150   1.414       .  A
C1135      C1151   1.421       .  A
C1135      C1143   1.387       .  A
C1136      N1589   1.354       .  A
C1136      C1144   1.388       .  A
C1136      C1153   1.417       .  A
C1137      C1152   1.419       .  A
C1137      C1145   1.389       .  A
C1138      C1150   1.413       .  A
C1138      C1146   1.386       .  A
C1139      C1153   1.414       .  A
C1139      C1147   1.386       .  A
C1140      C1148   1.387       .  A
C1140      C1151   1.422       .  A
C1141      C1149   1.388       .  A
C1141      C1152   1.422       .  A
C1142      C1600   1.377       .  A
C1142      H1154   1.082       .  S
C1143      C1599   1.377   1_554  A
C1143      H1155   1.082       .  S
C1144      C1602   1.376       .  A
C1144      H1156   1.082       .  S
C1145      C1601   1.376   1_554  A
C1145      H1157   1.083       .  S
C1146      H1158   1.082       .  S
C1147      H1159   1.082       .  S
C1148      H1160   1.081       .  S
C1149      H1161   1.081       .  S
C1150      C1313   1.483       .  S
C1151      C1273   1.509       .  S
C1152      C1260   1.485       .  S
C1153      C1297   1.488       .  S
N1164      C1169   1.354       .  A
N1164      C2996   1.358   1_455  A
N1164      H1196   1.033       .  S
N1165      C1172   1.354   1_556  A
N1165      C1630   1.356       .  A
N1166      C1171   1.355       .  A
N1166      C2998   1.354   1_455  A
N1166      H1197   1.029       .  S
N1167      C1174   1.352       .  A
N1167      C1632   1.356   1_554  A
C1168      N2992   1.358       .  A
C1168      C1176   1.387       .  A
C1168      C1184   1.422       .  A
C1169      C1185   1.424       .  A
C1169      C1177   1.390       .  A
C1170      N2994   1.354       .  A
C1170      C1178   1.389       .  A
C1170      C1187   1.421       .  A
C1171      C1186   1.424       .  A
C1171      C1179   1.387       .  A
C1172      C1184   1.416       .  A
C1172      C1180   1.386   1_554  A
C1173      N1622   1.354       .  A
C1173      C1187   1.418       .  A
C1173      C1181   1.387       .  A
C1174      C1182   1.390       .  A
C1174      C1185   1.422       .  A
C1175      N1624   1.356       .  A
C1175      C1183   1.386       .  A
C1175      C1186   1.423       .  A
C1176      C3005   1.374       .  A
C1176      H1188   1.082       .  S
C1177      C3004   1.378   1_455  A
C1177      H1189   1.082       .  S
C1178      C3007   1.373       .  A
C1178      H1190   1.082       .  S
C1179      C3006   1.377   1_455  A
C1179      H1191   1.082       .  S
C1180      C1638   1.372       .  A
C1180      H1192   1.083   1_556  S
C1181      C1637   1.372       .  A
C1181      H1193   1.082       .  S
C1182      C1640   1.371   1_554  A
C1182      H1194   1.082       .  S
C1183      C1639   1.371       .  A
C1183      H1195   1.082       .  S
C1184      C1248   1.494       .  S
C1185      C1256   1.489       .  S
C1186      C1300   1.499       .  S
C1187      C1325   1.490       .  S
C1198      C1199   1.535       .  S
C1198      C1204   1.551       .  S
C1198      C1202   1.543       .  S
C1198      C1365   1.528       .  S
C1199      H1206   1.086       .  S
C1199      C1200   1.364       .  D
C1200      C1201   1.530       .  S
C1200      C1253   1.477       .  S
C1201      C1205   1.540       .  S
C1201      C1203   1.542       .  S
C1201      H1207   1.108       .  S
C1202      H1208   1.086       .  S
C1202      C1203   1.368       .  D
C1203      C1249   1.494       .  S
C1204      H1209   1.083       .  S
C1204      C1205   1.371       .  D
C1205      C1244   1.491       .  S
N1210      C1672   1.354   1_554  A
N1210      C1214   1.358       .  A
N1210      H1242   1.038       .  S
N1211      C1219   1.351   1_545  A
N1212      C1674   1.360   1_554  A
N1212      C1216   1.358       .  A
N1212      H1243   1.036       .  S
N1213      C1221   1.353   1_545  A
C1214      C1222   1.387       .  A
C1214      C1230   1.419       .  A
C1215      N1667   1.353       .  A
C1215      C1231   1.418       .  A
C1215      C1223   1.388       .  A
C1216      C1224   1.388       .  A
C1216      C1233   1.424       .  A
C1217      N1669   1.354       .  A
C1217      C1232   1.416       .  A
C1217      C1225   1.388       .  A
C1218      C1230   1.416       .  A
C1218      C1226   1.386       .  A
C1219      C1233   1.419       .  A
C1219      C1227   1.390       .  A
C1220      C1228   1.388       .  A
C1220      C1231   1.418       .  A
C1221      C1229   1.385       .  A
C1221      C1232   1.413       .  A
C1222      C1680   1.372   1_554  A
C1222      H1234   1.082       .  S
C1223      C1679   1.372       .  A
C1223      H1235   1.083       .  S
C1224      C1682   1.370   1_554  A
C1224      H1236   1.082       .  S
C1225      C1681   1.374       .  A
C1225      H1237   1.083       .  S
C1226      H1238   1.082       .  S
C1227      H1239   1.082       .  S
C1228      H1240   1.082       .  S
C1229      H1241   1.082       .  S
C1230      C1245   1.496       .  S
C1231      C1316   1.485       .  S
C1232      C1329   1.488       .  S
C1233      C1285   1.488       .  S
C1244      H1246   1.086       .  S
C1244      C1245   1.348       .  D
C1245      H1247   1.086       .  S
C1248      H1250   1.085       .  S
C1248      C1249   1.345       .  D
C1249      H1251   1.086       .  S
C1252      H1254   1.086       .  S
C1252      C1253   1.342       .  D
C1253      H1255   1.087       .  S
C1256      H1258   1.086       .  S
C1256      C1257   1.341       .  D
C1257      H1259   1.088       .  S
C1260      H1262   1.086       .  S
C1260      C1261   1.342       .  D
C1261      H1263   1.087       .  S
C1264      H1266   1.087       .  S
C1264      C1265   1.347       .  D
C1265      H1267   1.086       .  S
C1268      H1270   1.087       .  S
C1268      C1269   1.346       .  D
C1269      H1271   1.084       .  S
C1272      H1274   1.087       .  S
C1272      C1273   1.348       .  D
C1273      H1275   1.085       .  S
C1276      H1278   1.086       .  S
C1276      C1277   1.344       .  D
C1277      H1279   1.086       .  S
C1280      H1282   1.085       .  S
C1280      C1281   1.347       .  D
C1281      H1283   1.087       .  S
C1284      H1286   1.086       .  S
C1284      C1285   1.346       .  D
C1285      H1287   1.085       .  S
C1288      H1290   1.086       .  S
C1288      C1289   1.344       .  D
C1289      H1291   1.087       .  S
C1292      H1294   1.086       .  S
C1292      C1293   1.346       .  D
C1293      H1295   1.086       .  S
C1296      H1298   1.087       .  S
C1296      C1297   1.343       .  D
C1297      H1299   1.084       .  S
C1300      H1302   1.085       .  S
C1300      C1301   1.348       .  D
C1301      H1303   1.087       .  S
C1304      H1306   1.086       .  S
C1304      C1305   1.344       .  D
C1305      H1307   1.087       .  S
C1308      H1310   1.086       .  S
C1308      C1309   1.343       .  D
C1309      H1311   1.087       .  S
C1312      H1314   1.087       .  S
C1312      C1313   1.343       .  D
C1313      H1315   1.085       .  S
C1316      H1318   1.086       .  S
C1316      C1317   1.338       .  D
C1317      H1319   1.088       .  S
C1320      H1322   1.087       .  S
C1320      C1321   1.350       .  D
C1321      H1323   1.086       .  S
C1324      H1326   1.087       .  S
C1324      C1325   1.346       .  D
C1325      H1327   1.084       .  S
C1328      H1330   1.087       .  S
C1328      C1329   1.341       .  D
C1329      H1331   1.086       .  S
C1332      H1334   1.087       .  S
C1332      C1333   1.345       .  D
C1333      H1335   1.086       .  S
C1336      H1338   1.087       .  S
C1336      C1337   1.346       .  D
C1337      H1339   1.084       .  S
C1340      H1342   1.087       .  S
C1340      C1341   1.349       .  D
C1341      H1343   1.086       .  S
C1344      H1346   1.086       .  S
C1344      C1345   1.352       .  D
C1345      H1347   1.087       .  S
C1348      H1350   1.087       .  S
C1348      C1349   1.346       .  D
C1349      H1351   1.087       .  S
C1352      H1354   1.086       .  S
C1352      C1353   1.355       .  D
C1353      H1355   1.086       .  S
C1356      H1358   1.086       .  S
C1356      C1357   1.352       .  D
C1357      H1359   1.087       .  S
C1360      H1362   1.087       .  S
C1360      C1361   1.352       .  D
C1361      H1363   1.086       .  S
C1364      H1366   1.082       .  S
C1364      C1365   1.350       .  D
C1365      H1367   1.087       .  S
C1368      H1370   1.086       .  S
C1368      C1369   1.353       .  D
C1369      H1371   1.087       .  S
O1372      C1380   1.266       .  A
O1372     Co1392   2.007       .  S
O1373      C1381   1.301       .  A
O1373     Co1393   2.078       .  S
O1374      C1382   1.273       .  A
O1374     Co1394   1.892       .  S
O1375      C1383   1.261       .  A
O1375     Co1395   1.989       .  S
O1376      C1382   1.306       .  A
O1376     Co1393   2.101       .  S
O1377      C1383   1.274       .  A
O1377     Co1392   2.044       .  S
O1378      C1381   1.273       .  A
O1378     Co1395   1.906       .  S
O1379      C1380   1.269       .  A
O1379     Co1394   2.006       .  S
C1380      C1825   1.493       .  S
C1381      C1801   1.487       .  S
C1382      C1821   1.489       .  S
C1383      C1813   1.495       .  S
O1384      C1397   1.260       .  A
O1384     Co1392   1.974       .  S
O1385      C1398   1.254       .  A
O1385     Co1393   2.009       .  S
O1386      C1399   1.273       .  A
O1386     Co1394   2.021       .  S
O1387      C1400   1.244       .  A
O1387     Co1395   1.963       .  S
O1388      C1400   1.261       .  A
O1388     Co1393   2.028       .  S
O1389      C1399   1.264       .  A
O1389     Co1392   1.986       .  S
O1390      C1397   1.276       .  A
O1390     Co1395   2.046       .  S
O1391      C1398   1.249       .  A
O1391     Co1394   1.987       .  S
Co1392     O1396   2.080       .  S
Co1393     O1396   2.264       .  S
Co1394     O1396   1.943       .  S
Co1395     O1396   1.945       .  S
C1397      C1806   1.483       .  S
C1398      C1810   1.488       .  S
C1399      C1818   1.479       .  S
C1400      C1798   1.487       .  S
C1401      C1402   1.543       .  S
C1401      C1407   1.552       .  S
C1401      C1405   1.541       .  S
C1401      C1797   1.532       .  S
C1402      H1409   1.086       .  S
C1402      C1403   1.369       .  D
C1403      C1404   1.527       .  S
C1403      C1793   1.477       .  S
C1404      C1408   1.539       .  S
C1404      C1406   1.541       .  S
C1404      H1410   1.111       .  S
C1405      H1411   1.087       .  S
C1405      C1406   1.364       .  D
C1406      C1789   1.490       .  S
C1407      H1412   1.083       .  S
C1407      C1408   1.369       .  D
C1408      C1785   1.488       .  S
C1413      C1414   1.544       .  S
C1413      C1419   1.546       .  S
C1413      C1417   1.547       .  S
C1413      C1802   1.523       .  S
C1414      H1421   1.085       .  S
C1414      C1415   1.369       .  D
C1415      C1416   1.529       .  S
C1415      C1774   1.481       .  S
C1416      C1420   1.532       .  S
C1416      C1418   1.536       .  S
C1416      H1422   1.111       .  S
C1417      H1423   1.085       .  S
C1417      C1418   1.372       .  D
C1418      C1781   1.492       .  S
C1419      H1424   1.086       .  S
C1419      C1420   1.364       .  D
C1420      C1778   1.483       .  S
C1425      C1426   1.548       .  S
C1425      C1431   1.548       .  S
C1425      C1429   1.547       .  S
C1425      C1805   1.526       .  S
C1426      H1433   1.086       .  S
C1426      C1427   1.368       .  D
C1427      C1428   1.527       .  S
C1427      C1769   1.478       .  S
C1428      C1432   1.538       .  S
C1428      C1430   1.524       .  S
C1428      H1434   1.110       .  S
C1429      H1435   1.086       .  S
C1429      C1430   1.366       .  D
C1430      C1762   1.477       .  S
C1431      H1436   1.086       .  S
C1431      C1432   1.370       .  D
C1432      C1765   1.490       .  S
C1437      C1438   1.539       .  S
C1437      C1443   1.558       .  S
C1437      C1441   1.550       .  S
C1437      C1814   1.532       .  S
C1438      H1445   1.086       .  S
C1438      C1439   1.363       .  D
C1439      C1440   1.537       .  S
C1439      C1749   1.479       .  S
C1440      C1444   1.535       .  S
C1440      C1442   1.532       .  S
C1440      H1446   1.111       .  S
C1441      H1447   1.086       .  S
C1441      C1442   1.366       .  D
C1442      C1758   1.492       .  S
C1443      H1448   1.085       .  S
C1443      C1444   1.379       .  D
C1444      C1753   1.499       .  S
N1449      C1454   1.358   1_655  A
N1449      C3281   1.355       .  A
N1449      H1481   1.040       .  S
N1450      C1458   1.354       .  A
N1451      C1456   1.356   1_655  A
N1451      C3283   1.357       .  A
N1451      H1482   1.041       .  S
N1452      C1460   1.351       .  A
C1453      N3277   1.353       .  A
C1453      C1461   1.387       .  A
C1453      C1469   1.416       .  A
C1454      C1470   1.420       .  A
C1454      C1462   1.388       .  A
C1455      N3279   1.353       .  A
C1455      C1463   1.389       .  A
C1455      C1472   1.416       .  A
C1456      C1471   1.417       .  A
C1456      C1464   1.387       .  A
C1457      C1469   1.413       .  A
C1457      C1465   1.386       .  A
C1458      C1472   1.414       .  A
C1458      C1466   1.385       .  A
C1459      C1467   1.387       .  A
C1459      C1470   1.412       .  A
C1460      C1468   1.387       .  A
C1460      C1471   1.410       .  A
C1461      C3290   1.377       .  A
C1461      H1473   1.082       .  S
C1462      C3289   1.377   1_455  A
C1462      H1474   1.082       .  S
C1463      C3292   1.374       .  A
C1463      H1475   1.082       .  S
C1464      C3291   1.371   1_455  A
C1464      H1476   1.082       .  S
C1465      H1477   1.082       .  S
C1466      H1478   1.082       .  S
C1467      H1479   1.083       .  S
C1468      H1480   1.083       .  S
C1469      C1794   1.486       .  S
C1470      C1766   1.490       .  S
C1471      C1750   1.485       .  S
C1472      C1777   1.485       .  S
C1483      C1484   1.545       .  S
C1483      C1489   1.547       .  S
C1483      C1487   1.552       .  S
C1483      C1809   1.529       .  S
C1484      H1491   1.086       .  S
C1484      C1485   1.365       .  D
C1485      C1486   1.533       .  S
C1485      C1741   1.481       .  S
C1486      C1490   1.530       .  S
C1486      C1488   1.533       .  S
C1486      H1492   1.111       .  S
C1487      H1493   1.085       .  S
C1487      C1488   1.372       .  D
C1488      C1738   1.496       .  S
C1489      H1494   1.085       .  S
C1489      C1490   1.372       .  D
C1490      C1746   1.487       .  S
C1495      C1496   1.544       .  S
C1495      C1501   1.544       .  S
C1495      C1499   1.535       .  S
C1495      C1817   1.520       .  S
C1496      H1503   1.086       .  S
C1496      C1497   1.367       .  D
C1497      C1498   1.542       .  S
C1497      C1734   1.494       .  S
C1498      C1502   1.535       .  S
C1498      C1500   1.535       .  S
C1498      H1504   1.108       .  S
C1499      H1505   1.085       .  S
C1499      C1500   1.363       .  D
C1500      C1725   1.482       .  S
C1501      H1506   1.085       .  S
C1501      C1502   1.374       .  D
C1502      C1729   1.485       .  S
N1507      C1511   1.354       .  A
N1507      H1539   1.038       .  S
N1508      C1515   1.351       .  A
N1508      C3344   1.354   1_455  A
N1509      C1513   1.359       .  A
N1509      H1540   1.038       .  S
N1510      C1517   1.355   1_655  A
N1510      C3346   1.354       .  A
C1511      C1519   1.388       .  A
C1511      C1527   1.417       .  A
C1512      C1528   1.420       .  A
C1512      C1520   1.387       .  A
C1513      C1521   1.388       .  A
C1513      C1530   1.425       .  A
C1514      C1529   1.423       .  A
C1514      C1522   1.386       .  A
C1515      C1527   1.413       .  A
C1515      C1523   1.386       .  A
C1516      N3336   1.355       .  A
C1516      C1530   1.417       .  A
C1516      C1524   1.387       .  A
C1517      C1525   1.387       .  A
C1517      C1528   1.420       .  A
C1518      N3338   1.352       .  A
C1518      C1526   1.386       .  A
C1518      C1529   1.415       .  A
C1519      H1531   1.082       .  S
C1520      H1532   1.082       .  S
C1521      H1533   1.082       .  S
C1522      H1534   1.081       .  S
C1523      C3352   1.370   1_455  A
C1523      H1535   1.082       .  S
C1524      C3351   1.373       .  A
C1524      H1536   1.082       .  S
C1525      C3354   1.373   1_455  A
C1525      H1537   1.082       .  S
C1526      C3353   1.374       .  A
C1526      H1538   1.082       .  S
C1527      C1726   1.484       .  S
C1528      C1761   1.497       .  S
C1529      C1790   1.496       .  S
C1530      C1737   1.502       .  S
C1541      C1542   1.539       .  S
C1541      C1547   1.556       .  S
C1541      C1545   1.547       .  S
C1541      C1826   1.534       .  S
C1542      H1549   1.086       .  S
C1542      C1543   1.361       .  D
C1543      C1544   1.537       .  S
C1543      C1718   1.486       .  S
C1544      C1548   1.532       .  S
C1544      C1546   1.540       .  S
C1544      H1550   1.108       .  S
C1545      H1551   1.086       .  S
C1545      C1546   1.368       .  D
C1546      C1714   1.492       .  S
C1547      H1552   1.085       .  S
C1547      C1548   1.378       .  D
C1548      C1721   1.492       .  S
N1553      C1558   1.355       .  A
N1553      C3385   1.355   1_455  A
N1553      H1585   1.039   1_455  S
N1554      C1562   1.353       .  A
N1555      C1560   1.359   1_655  A
N1555      C3387   1.355       .  A
N1555      H1586   1.034       .  S
N1556      C1564   1.354       .  A
C1557      N3381   1.356       .  A
C1557      C1565   1.387       .  A
C1557      C1573   1.421       .  A
C1558      C1574   1.417       .  A
C1558      C1566   1.387       .  A
C1559      N3383   1.357       .  A
C1559      C1567   1.389       .  A
C1559      C1576   1.423       .  A
C1560      C1575   1.425       .  A
C1560      C1568   1.387       .  A
C1561      C1573   1.416       .  A
C1561      C1569   1.386       .  A
C1562      C1576   1.418       .  A
C1562      C1570   1.387       .  A
C1563      C1571   1.387       .  A
C1563      C1574   1.417       .  A
C1564      C1572   1.389       .  A
C1564      C1575   1.421       .  A
C1565      C3394   1.369       .  A
C1565      H1577   1.082       .  S
C1566      C3393   1.376   1_455  A
C1566      H1578   1.080       .  S
C1567      C3396   1.375       .  A
C1567      H1579   1.082       .  S
C1568      C3395   1.381   1_455  A
C1568      H1580   1.082       .  S
C1569      H1581   1.082       .  S
C1570      H1582   1.082       .  S
C1571      H1583   1.082       .  S
C1572      H1584   1.081       .  S
C1573      C1745   1.493       .  S
C1574      C1733   1.493       .  S
C1575      C1722   1.501       .  S
C1576      C1709   1.494       .  S
N1587      C1592   1.354       .  A
N1587      H1619   1.035       .  S
N1588      C1596   1.358       .  A
N1589      C1594   1.354       .  A
N1589      H1620   1.039       .  S
N1590      C1598   1.353       .  A
C1591      C1599   1.387       .  A
C1591      C1607   1.420       .  A
C1592      C1608   1.416       .  A
C1592      C1600   1.388       .  A
C1593      C1601   1.386       .  A
C1593      C1610   1.421       .  A
C1594      C1609   1.416       .  A
C1594      C1602   1.388       .  A
C1595      C1607   1.420       .  A
C1595      C1603   1.388       .  A
C1596      C1610   1.420       .  A
C1596      C1604   1.384       .  A
C1597      C1605   1.386       .  A
C1597      C1608   1.417       .  A
C1598      C1606   1.385       .  A
C1598      C1609   1.413       .  A
C1599      H1611   1.082       .  S
C1600      H1612   1.082       .  S
C1601      H1613   1.082       .  S
C1602      H1614   1.083       .  S
C1603      H1615   1.082       .  S
C1604      H1616   1.082       .  S
C1605      H1617   1.082       .  S
C1606      H1618   1.082       .  S
C1607      C1770   1.493       .  S
C1608      C1730   1.489       .  S
C1609      C1717   1.487       .  S
C1610      C1754   1.508       .  S
N1621      C1626   1.354       .  A
N1621      C3453   1.354   1_455  A
N1621      H1653   1.032       .  S
N1622      C1629   1.354       .  A
N1623      C1628   1.354   1_655  A
N1623      C3455   1.350       .  A
N1623      H1654   1.037       .  S
N1624      C1631   1.357       .  A
C1625      N3449   1.360       .  A
C1625      C1633   1.388       .  A
C1625      C1641   1.424       .  A
C1626      C1642   1.420       .  A
C1626      C1634   1.388       .  A
C1627      N3451   1.357       .  A
C1627      C1635   1.388       .  A
C1627      C1644   1.423       .  A
C1628      C1643   1.413       .  A
C1628      C1636   1.385       .  A
C1629      C1641   1.416       .  A
C1629      C1637   1.386       .  A
C1630      C1644   1.417       .  A
C1630      C1638   1.386       .  A
C1631      C1639   1.387       .  A
C1631      C1642   1.423       .  A
C1632      C1640   1.384       .  A
C1632      C1643   1.414       .  A
C1633      C3462   1.376       .  A
C1633      H1645   1.082       .  S
C1634      C3461   1.374   1_455  A
C1634      H1646   1.082       .  S
C1635      C3464   1.374       .  A
C1635      H1647   1.082       .  S
C1636      C3463   1.378   1_455  A
C1636      H1648   1.082       .  S
C1637      H1649   1.083       .  S
C1638      H1650   1.082       .  S
C1639      H1651   1.081       .  S
C1640      H1652   1.082       .  S
C1641      C1705   1.497       .  S
C1642      C1713   1.494       .  S
C1643      C1757   1.495       .  S
C1644      C1782   1.499       .  S
C1655      C1656   1.544       .  S
C1655      C1661   1.538       .  S
C1655      C1659   1.542       .  S
C1655      C1822   1.528       .  S
C1656      H1663   1.084       .  S
C1656      C1657   1.372       .  D
C1657      C1658   1.538       .  S
C1657      C1710   1.491       .  S
C1658      C1662   1.548       .  S
C1658      C1660   1.545       .  S
C1658      H1664   1.104       .  S
C1659      H1665   1.086       .  S
C1659      C1660   1.367       .  D
C1660      C1706   1.497       .  S
C1661      H1666   1.086       .  S
C1661      C1662   1.367       .  D
C1662      C1701   1.495       .  S
N1667      C1671   1.357       .  A
N1667      H1699   1.036       .  S
N1668      C1676   1.351       .  A
N1669      C1673   1.355       .  A
N1669      H1700   1.041       .  S
N1670      C1678   1.353   1_545  A
C1671      C1679   1.388       .  A
C1671      C1687   1.419       .  A
C1672      C1688   1.419       .  A
C1672      C1680   1.389       .  A
C1673      C1681   1.388       .  A
C1673      C1690   1.416       .  A
C1674      C1689   1.424       .  A
C1674      C1682   1.388       .  A
C1675      C1687   1.416       .  A
C1675      C1683   1.386       .  A
C1676      C1690   1.411       .  A
C1676      C1684   1.387       .  A
C1677      C1685   1.388       .  A
C1677      C1688   1.417       .  A
C1678      C1686   1.387       .  A
C1678      C1689   1.419       .  A
C1679      H1691   1.083       .  S
C1680      H1692   1.082       .  S
C1681      H1693   1.082       .  S
C1682      H1694   1.082       .  S
C1683      H1695   1.082       .  S
C1684      H1696   1.083       .  S
C1685      H1697   1.082       .  S
C1686      H1698   1.082       .  S
C1687      C1702   1.492       .  S
C1688      C1773   1.487       .  S
C1689      C1786   1.494       .  S
C1690      C1742   1.485       .  S
C1701      H1703   1.087       .  S
C1701      C1702   1.345       .  D
C1702      H1704   1.082       .  S
C1705      H1707   1.085       .  S
C1705      C1706   1.346       .  D
C1706      H1708   1.087       .  S
C1709      H1711   1.084       .  S
C1709      C1710   1.346       .  D
C1710      H1712   1.087       .  S
C1713      H1715   1.086       .  S
C1713      C1714   1.347       .  D
C1714      H1716   1.086       .  S
C1717      H1719   1.086       .  S
C1717      C1718   1.343       .  D
C1718      H1720   1.087       .  S
C1721      H1723   1.087       .  S
C1721      C1722   1.346       .  D
C1722      H1724   1.085       .  S
C1725      H1727   1.087       .  S
C1725      C1726   1.345       .  D
C1726      H1728   1.085       .  S
C1729      H1731   1.087       .  S
C1729      C1730   1.343       .  D
C1730      H1732   1.084       .  S
C1733      H1735   1.083       .  S
C1733      C1734   1.347       .  D
C1734      H1736   1.086       .  S
C1737      H1739   1.085       .  S
C1737      C1738   1.348       .  D
C1738      H1740   1.087       .  S
C1741      H1743   1.086       .  S
C1741      C1742   1.343       .  D
C1742      H1744   1.087       .  S
C1745      H1747   1.084       .  S
C1745      C1746   1.343       .  D
C1746      H1748   1.087       .  S
C1749      H1751   1.086       .  S
C1749      C1750   1.341       .  D
C1750      H1752   1.087       .  S
C1753      H1755   1.087       .  S
C1753      C1754   1.348       .  D
C1754      H1756   1.086       .  S
C1757      H1759   1.086       .  S
C1757      C1758   1.347       .  D
C1758      H1760   1.087       .  S
C1761      H1763   1.086       .  S
C1761      C1762   1.344       .  D
C1762      H1764   1.087       .  S
C1765      H1767   1.086       .  S
C1765      C1766   1.346       .  D
C1766      H1768   1.085       .  S
C1769      H1771   1.087       .  S
C1769      C1770   1.343       .  D
C1770      H1772   1.086       .  S
C1773      H1775   1.085       .  S
C1773      C1774   1.341       .  D
C1774      H1776   1.088       .  S
C1777      H1779   1.087       .  S
C1777      C1778   1.344       .  D
C1778      H1780   1.086       .  S
C1781      H1783   1.087       .  S
C1781      C1782   1.347       .  D
C1782      H1784   1.085       .  S
C1785      H1787   1.086       .  S
C1785      C1786   1.347       .  D
C1786      H1788   1.087       .  S
C1789      H1791   1.087       .  S
C1789      C1790   1.345       .  D
C1790      H1792   1.086       .  S
C1793      H1795   1.087       .  S
C1793      C1794   1.341       .  D
C1794      H1796   1.086       .  S
C1797      H1799   1.087       .  S
C1797      C1798   1.348       .  D
C1798      H1800   1.081       .  S
C1801      H1803   1.086       .  S
C1801      C1802   1.348       .  D
C1802      H1804   1.087       .  S
C1805      H1807   1.087       .  S
C1805      C1806   1.346       .  D
C1806      H1808   1.087       .  S
C1809      H1811   1.087       .  S
C1809      C1810   1.354       .  D
C1810      H1812   1.086       .  S
C1813      H1815   1.086       .  S
C1813      C1814   1.353       .  D
C1814      H1816   1.087       .  S
C1817      H1819   1.088       .  S
C1817      C1818   1.343       .  D
C1818      H1820   1.086       .  S
C1821      H1823   1.087       .  S
C1821      C1822   1.350       .  D
C1822      H1824   1.086       .  S
C1825      H1827   1.087       .  S
C1825      C1826   1.345       .  D
C1826      H1828   1.087       .  S
O1829      C1837   1.272       .  A
O1829     Co1849   1.988       .  S
O1830      C1838   1.265       .  A
O1830     Co1850   1.979       .  S
O1831      C1839   1.272       .  A
O1831     Co1851   2.022       .  S
O1832      C1840   1.301       .  A
O1832     Co1852   2.133       .  S
O1833      C1839   1.267       .  A
O1833     Co1850   1.988       .  S
O1834      C1840   1.261       .  A
O1834     Co1849   1.888       .  S
O1835      C1838   1.262       .  A
O1835     Co1852   2.006       .  S
O1836      C1837   1.280       .  A
O1836     Co1851   2.030       .  S
C1837      C2282   1.489       .  S
C1838      C2258   1.484       .  S
C1839      C2278   1.491       .  S
C1840      C2270   1.486       .  S
O1841      C1854   1.298       .  A
O1841     Co1849   2.117       .  S
O1842      C1855   1.277       .  A
O1842     Co1850   2.045       .  S
O1843      C1856   1.257       .  A
O1843     Co1851   1.967       .  S
O1844      C1857   1.274       .  A
O1844     Co1852   1.992       .  S
O1845      C1857   1.278       .  A
O1845     Co1850   2.029       .  S
O1846      C1856   1.260       .  A
O1846     Co1849   2.005       .  S
O1847      C1854   1.269       .  A
O1847     Co1852   1.903       .  S
O1848      C1855   1.261       .  A
O1848     Co1851   1.971       .  S
Co1849     O1853   2.014       .  S
Co1850     O1853   2.049       .  S
Co1851     O1853   2.039       .  S
Co1852     O1853   2.038       .  S
C1854      C2263   1.488       .  S
C1855      C2267   1.487       .  S
C1856      C2275   1.472       .  S
C1857      C2255   1.496       .  S
C1858      C1859   1.546       .  S
C1858      C1864   1.544       .  S
C1858      C1862   1.543       .  S
C1858      C2254   1.536       .  S
C1859      H1866   1.085       .  S
C1859      C1860   1.372       .  D
C1860      C1861   1.538       .  S
C1860      C2250   1.494       .  S
C1861      C1865   1.548       .  S
C1861      C1863   1.542       .  S
C1861      H1867   1.104       .  S
C1862      H1868   1.087       .  S
C1862      C1863   1.365       .  D
C1863      C2246   1.498       .  S
C1864      H1869   1.083       .  S
C1864      C1865   1.369       .  D
C1865      C2242   1.493       .  S
C1870      C1871   1.550       .  S
C1870      C1876   1.537       .  S
C1870      C1874   1.552       .  S
C1870      C2259   1.514       .  S
C1871      H1878   1.085       .  S
C1871      C1872   1.373       .  D
C1872      C1873   1.527       .  S
C1872      C2231   1.483       .  S
C1873      C1877   1.529       .  S
C1873      C1875   1.532       .  S
C1873      H1879   1.111       .  S
C1874      H1880   1.085       .  S
C1874      C1875   1.374       .  D
C1875      C2238   1.489       .  S
C1876      H1881   1.087       .  S
C1876      C1877   1.349       .  D
C1877      C2235   1.468       .  S
C1882      C1883   1.541       .  S
C1882      C1888   1.557       .  S
C1882      C1886   1.548       .  S
C1882      C2262   1.527       .  S
C1883      H1890   1.086       .  S
C1883      C1884   1.362       .  D
C1884      C1885   1.524       .  S
C1884      C2226   1.472       .  S
C1885      C1889   1.527       .  S
C1885      C1887   1.529       .  S
C1885      H1891   1.112       .  S
C1886      H1892   1.086       .  S
C1886      C1887   1.370       .  D
C1887      C2219   1.484       .  S
C1888      H1893   1.083       .  S
C1888      C1889   1.373       .  D
C1889      C2222   1.482       .  S
C1894      C1895   1.543       .  S
C1894      C1900   1.551       .  S
C1894      C1898   1.551       .  S
C1894      C2271   1.531       .  S
C1895      H1902   1.086       .  S
C1895      C1896   1.362       .  D
C1896      C1897   1.534       .  S
C1896      C2206   1.484       .  S
C1897      C1901   1.527       .  S
C1897      C1899   1.525       .  S
C1897      H1903   1.108       .  S
C1898      H1904   1.086       .  S
C1898      C1899   1.370       .  D
C1899      C2215   1.480       .  S
C1900      H1905   1.085       .  S
C1900      C1901   1.374       .  D
C1901      C2210   1.486       .  S
N1906      C1911   1.354       .  A
N1906      H1938   1.040       .  S
N1907      C2828   1.352       .  A
N1907      C1915   1.350   1_565  A
N1908      C1913   1.355       .  A
N1908      H1939   1.040       .  S
N1909      C2830   1.353   1_545  A
N1909      C1917   1.354       .  A
C1910      C1918   1.387       .  A
C1910      C1926   1.423       .  A
C1911      C1927   1.415       .  A
C1911      C1919   1.388       .  A
C1912      C1920   1.389       .  A
C1912      C1929   1.412       .  A
C1913      C1928   1.417       .  A
C1913      C1921   1.388       .  A
C1914      N2821   1.357       .  A
C1914      C1926   1.420       .  A
C1914      C1922   1.386       .  A
C1915      C1929   1.411       .  A
C1915      C1923   1.388       .  A
C1916      N2823   1.356       .  A
C1916      C1924   1.385       .  A
C1916      C1927   1.418       .  A
C1917      C1925   1.389       .  A
C1917      C1928   1.417       .  A
C1918      H1930   1.082       .  S
C1919      H1931   1.083       .  S
C1920      H1932   1.080       .  S
C1921      H1933   1.082       .  S
C1922      C2837   1.372       .  A
C1922      H1934   1.082       .  S
C1923      C2836   1.371   1_545  A
C1923      H1935   1.083       .  S
C1924      C2839   1.374       .  A
C1924      H1936   1.082       .  S
C1925      C2838   1.366   1_545  A
C1925      H1937   1.080       .  S
C1926      C2251   1.502       .  S
C1927      C2223   1.496       .  S
C1928      C2207   1.486       .  S
C1929      C2234   1.471       .  S
C1940      C1941   1.547       .  S
C1940      C1946   1.547       .  S
C1940      C1944   1.543       .  S
C1940      C2266   1.527       .  S
C1941      H1948   1.086       .  S
C1941      C1942   1.369       .  D
C1942      C1943   1.539       .  S
C1942      C2198   1.492       .  S
C1943      C1947   1.533       .  S
C1943      C1945   1.529       .  S
C1943      H1949   1.108       .  S
C1944      H1950   1.086       .  S
C1944      C1945   1.365       .  D
C1945      C2195   1.479       .  S
C1946      H1951   1.085       .  S
C1946      C1947   1.372       .  D
C1947      C2203   1.490       .  S
C1952      C1953   1.530       .  S
C1952      C1958   1.544       .  S
C1952      C1956   1.542       .  S
C1952      C2274   1.510       .  S
C1953      H1960   1.087       .  S
C1953      C1954   1.356       .  D
C1954      C1955   1.540       .  S
C1954      C2191   1.472       .  S
C1955      C1959   1.536       .  S
C1955      C1957   1.537       .  S
C1955      H1961   1.109       .  S
C1956      H1962   1.085       .  S
C1956      C1957   1.369       .  D
C1957      C2182   1.486       .  S
C1958      H1963   1.084       .  S
C1958      C1959   1.372       .  D
C1959      C2186   1.491       .  S
N1964      C2426   1.356   1_554  A
N1964      C1968   1.355       .  A
N1964      H1996   1.039       .  S
N1965      C1972   1.352       .  A
N1966      C2428   1.354   1_554  A
N1966      C1970   1.356       .  A
N1966      H1997   1.037       .  S
N1967      C1974   1.355       .  A
C1968      C1976   1.389       .  A
C1968      C1984   1.418       .  A
C1969      N2421   1.355       .  A
C1969      C1985   1.414       .  A
C1969      C1977   1.387       .  A
C1970      C1978   1.386       .  A
C1970      C1987   1.416       .  A
C1971      N2423   1.359       .  A
C1971      C1986   1.422       .  A
C1971      C1979   1.387       .  A
C1972      C1984   1.414       .  A
C1972      C1980   1.385       .  A
C1973      C1987   1.412       .  A
C1973      C1981   1.386       .  A
C1974      C1982   1.385       .  A
C1974      C1985   1.415       .  A
C1975      C1983   1.385       .  A
C1975      C1986   1.415       .  A
C1976      C2434   1.374   1_554  A
C1976      H1988   1.082       .  S
C1977      C2433   1.373       .  A
C1977      H1989   1.083       .  S
C1978      C2436   1.373   1_554  A
C1978      H1990   1.082       .  S
C1979      C2435   1.377       .  A
C1979      H1991   1.082       .  S
C1980      H1992   1.082       .  S
C1981      H1993   1.082       .  S
C1982      H1994   1.082       .  S
C1983      H1995   1.082       .  S
C1984      C2183   1.490       .  S
C1985      C2218   1.494       .  S
C1986      C2247   1.500       .  S
C1987      C2194   1.488       .  S
C1998      C1999   1.539       .  S
C1998      C2004   1.545       .  S
C1998      C2002   1.544       .  S
C1998      C2283   1.521       .  S
C1999      H2006   1.086       .  S
C1999      C2000   1.366       .  D
C2000      C2001   1.543       .  S
C2000      C2175   1.489       .  S
C2001      C2005   1.537       .  S
C2001      C2003   1.533       .  S
C2001      H2007   1.109       .  S
C2002      H2008   1.086       .  S
C2002      C2003   1.365       .  D
C2003      C2171   1.488       .  S
C2004      H2009   1.084       .  S
C2004      C2005   1.375       .  D
C2005      C2178   1.490       .  S
N2010      C2015   1.346       .  A
N2010      H2042   1.039       .  S
N2011      C2932   1.354       .  A
N2011      C2019   1.354   1_565  A
N2012      C2017   1.358       .  A
N2012      H2043   1.036       .  S
N2013      C2934   1.352   1_545  A
N2013      C2021   1.353       .  A
C2014      C2022   1.388       .  A
C2014      C2030   1.420       .  A
C2015      C2031   1.403       .  A
C2015      C2023   1.386       .  A
C2016      C2024   1.389       .  A
C2016      C2033   1.421       .  A
C2017      C2032   1.421       .  A
C2017      C2025   1.388       .  A
C2018      N2925   1.354       .  A
C2018      C2030   1.416       .  A
C2018      C2026   1.385       .  A
C2019      C2033   1.416       .  A
C2019      C2027   1.386       .  A
C2020      N2927   1.348       .  A
C2020      C2028   1.388       .  A
C2020      C2031   1.411       .  A
C2021      C2029   1.389       .  A
C2021      C2032   1.420       .  A
C2022      H2034   1.082       .  S
C2023      H2035   1.083       .  S
C2024      H2036   1.082       .  S
C2025      H2037   1.082       .  S
C2026      C2941   1.377       .  A
C2026      H2038   1.082       .  S
C2027      C2940   1.375   1_545  A
C2027      H2039   1.082       .  S
C2028      C2943   1.376       .  A
C2028      H2040   1.082       .  S
C2029      C2942   1.372   1_545  A
C2029      H2041   1.081       .  S
C2030      C2202   1.495       .  S
C2031      C2190   1.471       .  S
C2032      C2179   1.497       .  S
C2033      C2166   1.494       .  S
N2044      C2049   1.357   1_556  A
N2044      C2505   1.355       .  A
N2044      H2076   1.037       .  S
N2045      C2966   1.355       .  A
N2045      C2053   1.355   1_565  A
N2046      C2051   1.352   1_556  A
N2046      C2507   1.352       .  A
N2046      H2077   1.036       .  S
N2047      C2968   1.353   1_545  A
N2047      C2055   1.355       .  A
C2048      N2501   1.351       .  A
C2048      C2056   1.387       .  A
C2048      C2064   1.415       .  A
C2049      C2065   1.421       .  A
C2049      C2057   1.389       .  A
C2050      N2503   1.355       .  A
C2050      C2058   1.389       .  A
C2050      C2067   1.422       .  A
C2051      C2066   1.410       .  A
C2051      C2059   1.385       .  A
C2052      N2959   1.351       .  A
C2052      C2064   1.415       .  A
C2052      C2060   1.389       .  A
C2053      C2067   1.418       .  A
C2053      C2061   1.387       .  A
C2054      N2961   1.354       .  A
C2054      C2062   1.387       .  A
C2054      C2065   1.421       .  A
C2055      C2063   1.385       .  A
C2055      C2066   1.416       .  A
C2056      C2514   1.377       .  A
C2056      H2068   1.082       .  S
C2057      C2513   1.375   1_554  A
C2057      H2069   1.082       .  S
C2058      C2516   1.373       .  A
C2058      H2070   1.082       .  S
C2059      C2515   1.373   1_554  A
C2059      H2071   1.082       .  S
C2060      C2975   1.374       .  A
C2060      H2072   1.083       .  S
C2061      C2974   1.374   1_545  A
C2061      H2073   1.082       .  S
C2062      C2977   1.371       .  A
C2062      H2074   1.082       .  S
C2063      C2976   1.373   1_545  A
C2063      H2075   1.082       .  S
C2064      C2227   1.482       .  S
C2065      C2187   1.495       .  S
C2066      C2174   1.488       .  S
C2067      C2211   1.494       .  S
N2078      C2083   1.355       .  A
N2078      H2110   1.038       .  S
N2079      C2086   1.354       .  A
N2079      C2544   1.355   1_554  A
N2080      C2085   1.355       .  A
N2080      H2111   1.040       .  S
N2081      C2088   1.355   1_556  A
N2081      C2546   1.356       .  A
C2082      C2090   1.388       .  A
C2082      C2098   1.422       .  A
C2083      C2099   1.419       .  A
C2083      C2091   1.388       .  A
C2084      C2092   1.387       .  A
C2084      C2101   1.424       .  A
C2085      C2100   1.420       .  A
C2085      C2093   1.389       .  A
C2086      C2098   1.415       .  A
C2086      C2094   1.385       .  A
C2087      N2536   1.354       .  A
C2087      C2101   1.417       .  A
C2087      C2095   1.387       .  A
C2088      C2096   1.386       .  A
C2088      C2099   1.417       .  A
C2089      N2538   1.355       .  A
C2089      C2097   1.387       .  A
C2089      C2100   1.421       .  A
C2090      H2102   1.082       .  S
C2091      H2103   1.082       .  S
C2092      H2104   1.082       .  S
C2093      H2105   1.082       .  S
C2094      C2552   1.374   1_554  A
C2094      H2106   1.082       .  S
C2095      C2551   1.373       .  A
C2095      H2107   1.082       .  S
C2096      C2554   1.372   1_554  A
C2096      H2108   1.082       .  S
C2097      C2553   1.372       .  A
C2097      H2109   1.082       .  S
C2098      C2162   1.499       .  S
C2099      C2170   1.491       .  S
C2100      C2214   1.495       .  S
C2101      C2239   1.499       .  S
C2112      C2113   1.542       .  S
C2112      C2118   1.546       .  S
C2112      C2116   1.542       .  S
C2112      C2279   1.529       .  S
C2113      H2120   1.084       .  S
C2113      C2114   1.370       .  D
C2114      C2115   1.540       .  S
C2114      C2167   1.494       .  S
C2115      C2119   1.542       .  S
C2115      C2117   1.542       .  S
C2115      H2121   1.110       .  S
C2116      H2122   1.086       .  S
C2116      C2117   1.365       .  D
C2117      C2163   1.495       .  S
C2118      H2123   1.085       .  S
C2118      C2119   1.374       .  D
C2119      C2158   1.496       .  S
N2124      C2586   1.355       .  A
N2124      C2128   1.359   1_556  A
N2124      H2156   1.037       .  S
N2125      C3046   1.354       .  A
N2125      C2133   1.356       .  A
N2126      C2588   1.357       .  A
N2126      C2130   1.358   1_556  A
N2126      H2157   1.038       .  S
N2127      C3048   1.352       .  A
N2127      C2135   1.353       .  A
C2128      C2136   1.388       .  A
C2128      C2144   1.424       .  A
C2129      N2581   1.356       .  A
C2129      C2145   1.419       .  A
C2129      C2137   1.388       .  A
C2130      C2138   1.388       .  A
C2130      C2147   1.422       .  A
C2131      N2583   1.355       .  A
C2131      C2146   1.416       .  A
C2131      C2139   1.388       .  A
C2132      N3039   1.355       .  A
C2132      C2144   1.418       .  A
C2132      C2140   1.386       .  A
C2133      C2147   1.420       .  A
C2133      C2141   1.389       .  A
C2134      N3041   1.354       .  A
C2134      C2142   1.386       .  A
C2134      C2145   1.414       .  A
C2135      C2143   1.386       .  A
C2135      C2146   1.414       .  A
C2136      C2594   1.375   1_554  A
C2136      H2148   1.082       .  S
C2137      C2593   1.369       .  A
C2137      H2149   1.081       .  S
C2138      C2596   1.371   1_554  A
C2138      H2150   1.081       .  S
C2139      C2595   1.373       .  A
C2139      H2151   1.082       .  S
C2140      C3055   1.375   1_545  A
C2140      H2152   1.082       .  S
C2141      C3054   1.369       .  A
C2141      H2153   1.080       .  S
C2142      C3057   1.373   1_545  A
C2142      H2154   1.082       .  S
C2143      C3056   1.374       .  A
C2143      H2155   1.082       .  S
C2144      C2159   1.503       .  S
C2145      C2230   1.493       .  S
C2146      C2243   1.487       .  S
C2147      C2199   1.495       .  S
C2158      H2160   1.087       .  S
C2158      C2159   1.351       .  D
C2159      H2161   1.085       .  S
C2162      H2164   1.086       .  S
C2162      C2163   1.346       .  D
C2163      H2165   1.087       .  S
C2166      H2168   1.084       .  S
C2166      C2167   1.349       .  D
C2167      H2169   1.087       .  S
C2170      H2172   1.085       .  S
C2170      C2171   1.347       .  D
C2171      H2173   1.087       .  S
C2174      H2176   1.085       .  S
C2174      C2175   1.343       .  D
C2175      H2177   1.087       .  S
C2178      H2180   1.087       .  S
C2178      C2179   1.344       .  D
C2179      H2181   1.084       .  S
C2182      H2184   1.087       .  S
C2182      C2183   1.346       .  D
C2183      H2185   1.085       .  S
C2186      H2188   1.087       .  S
C2186      C2187   1.346       .  D
C2187      H2189   1.084       .  S
C2190      H2192   1.085       .  S
C2190      C2191   1.332       .  D
C2191      H2193   1.087       .  S
C2194      H2196   1.086       .  S
C2194      C2195   1.343       .  D
C2195      H2197   1.087       .  S
C2198      H2200   1.086       .  S
C2198      C2199   1.348       .  D
C2199      H2201   1.084       .  S
C2202      H2204   1.085       .  S
C2202      C2203   1.345       .  D
C2203      H2205   1.087       .  S
C2206      H2208   1.087       .  S
C2206      C2207   1.344       .  D
C2207      H2209   1.083       .  S
C2210      H2212   1.088       .  S
C2210      C2211   1.340       .  D
C2211      H2213   1.085       .  S
C2214      H2216   1.086       .  S
C2214      C2215   1.341       .  D
C2215      H2217   1.088       .  S
C2218      H2220   1.086       .  S
C2218      C2219   1.343       .  D
C2219      H2221   1.087       .  S
C2222      H2224   1.087       .  S
C2222      C2223   1.341       .  D
C2223      H2225   1.087       .  S
C2226      H2228   1.087       .  S
C2226      C2227   1.340       .  D
C2227      H2229   1.087       .  S
C2230      H2232   1.085       .  S
C2230      C2231   1.341       .  D
C2231      H2233   1.088       .  S
C2234      H2236   1.086       .  S
C2234      C2235   1.335       .  D
C2235      H2237   1.087       .  S
C2238      H2240   1.088       .  S
C2238      C2239   1.344       .  D
C2239      H2241   1.085       .  S
C2242      H2244   1.087       .  S
C2242      C2243   1.344       .  D
C2243      H2245   1.081       .  S
C2246      H2248   1.087       .  S
C2246      C2247   1.347       .  D
C2247      H2249   1.085       .  S
C2250      H2252   1.087       .  S
C2250      C2251   1.350       .  D
C2251      H2253   1.086       .  S
C2254      H2256   1.087       .  S
C2254      C2255   1.357       .  D
C2255      H2257   1.082       .  S
C2258      H2260   1.086       .  S
C2258      C2259   1.341       .  D
C2259      H2261   1.088       .  S
C2262      H2264   1.088       .  S
C2262      C2263   1.350       .  D
C2263      H2265   1.083       .  S
C2266      H2268   1.087       .  S
C2266      C2267   1.347       .  D
C2267      H2269   1.086       .  S
C2270      H2272   1.087       .  S
C2270      C2271   1.349       .  D
C2271      H2273   1.086       .  S
C2274      H2276   1.087       .  S
C2274      C2275   1.347       .  D
C2275      H2277   1.087       .  S
C2278      H2280   1.087       .  S
C2278      C2279   1.349       .  D
C2279      H2281   1.087       .  S
C2282      H2284   1.086       .  S
C2282      C2283   1.350       .  D
C2283      H2285   1.087       .  S
O2286      C2294   1.271       .  A
O2286     Co2306   1.981       .  S
O2287      C2295   1.265       .  A
O2287     Co2307   1.996       .  S
O2288      C2296   1.275       .  A
O2288     Co2308   2.025       .  S
O2289      C2297   1.301       .  A
O2289     Co2309   2.115       .  S
O2290      C2296   1.267       .  A
O2290     Co2307   1.964       .  S
O2291      C2297   1.266       .  A
O2291     Co2306   1.894       .  S
O2292      C2295   1.261       .  A
O2292     Co2309   2.003       .  S
O2293      C2294   1.280       .  A
O2293     Co2308   2.039       .  S
C2294      C2739   1.492       .  S
C2295      C2715   1.491       .  S
C2296      C2735   1.478       .  S
C2297      C2727   1.484       .  S
O2298      C2311   1.295       .  A
O2298     Co2306   2.114       .  S
O2299      C2312   1.272       .  A
O2299     Co2307   2.042       .  S
O2300      C2313   1.254       .  A
O2300     Co2308   1.977       .  S
O2301      C2314   1.267       .  A
O2301     Co2309   1.981       .  S
O2302      C2314   1.278       .  A
O2302     Co2307   2.018       .  S
O2303      C2313   1.263       .  A
O2303     Co2306   2.014       .  S
O2304      C2311   1.261       .  A
O2304     Co2309   1.904       .  S
O2305      C2312   1.259       .  A
O2305     Co2308   1.974       .  S
Co2306     O2310   2.032       .  S
Co2307     O2310   2.064       .  S
Co2308     O2310   2.031       .  S
Co2309     O2310   2.019       .  S
C2311      C2720   1.473       .  S
C2312      C2724   1.488       .  S
C2313      C2732   1.472       .  S
C2314      C2712   1.478       .  S
C2315      C2316   1.540       .  S
C2315      C2321   1.542       .  S
C2315      C2319   1.534       .  S
C2315      C2711   1.511       .  S
C2316      H2323   1.085       .  S
C2316      C2317   1.371       .  D
C2317      C2318   1.536       .  S
C2317      C2707   1.483       .  S
C2318      C2322   1.541       .  S
C2318      C2320   1.545       .  S
C2318      H2324   1.107       .  S
C2319      H2325   1.087       .  S
C2319      C2320   1.358       .  D
C2320      C2703   1.487       .  S
C2321      H2326   1.086       .  S
C2321      C2322   1.367       .  D
C2322      C2699   1.485       .  S
C2327      C2328   1.551       .  S
C2327      C2333   1.540       .  S
C2327      C2331   1.551       .  S
C2327      C2716   1.526       .  S
C2328      H2335   1.085       .  S
C2328      C2329   1.372       .  D
C2329      C2330   1.526       .  S
C2329      C2688   1.481       .  S
C2330      C2334   1.530       .  S
C2330      C2332   1.531       .  S
C2330      H2336   1.112       .  S
C2331      H2337   1.086       .  S
C2331      C2332   1.375       .  D
C2332      C2695   1.485       .  S
C2333      H2338   1.087       .  S
C2333      C2334   1.358       .  D
C2334      C2692   1.476       .  S
C2339      C2340   1.543       .  S
C2339      C2345   1.540       .  S
C2339      C2343   1.551       .  S
C2339      C2719   1.518       .  S
C2340      H2347   1.085       .  S
C2340      C2341   1.368       .  D
C2341      C2342   1.534       .  S
C2341      C2683   1.487       .  S
C2342      C2346   1.538       .  S
C2342      C2344   1.532       .  S
C2342      H2348   1.110       .  S
C2343      H2349   1.085       .  S
C2343      C2344   1.372       .  D
C2344      C2676   1.490       .  S
C2345      H2350   1.086       .  S
C2345      C2346   1.360       .  D
C2346      C2679   1.480       .  S
C2351      C2352   1.542       .  S
C2351      C2357   1.545       .  S
C2351      C2355   1.554       .  S
C2351      C2728   1.524       .  S
C2352      H2359   1.086       .  S
C2352      C2353   1.365       .  D
C2353      C2354   1.537       .  S
C2353      C2663   1.479       .  S
C2354      C2358   1.530       .  S
C2354      C2356   1.531       .  S
C2354      H2360   1.111       .  S
C2355      H2361   1.086       .  S
C2355      C2356   1.371       .  D
C2356      C2672   1.492       .  S
C2357      H2362   1.086       .  S
C2357      C2358   1.366       .  D
C2358      C2667   1.480       .  S
N2363      C2368   1.356       .  A
N2363      H2395   1.041       .  S
N2364      C3285   1.349       .  A
N2364      C2372   1.353   1_565  A
N2365      C2370   1.351       .  A
N2365      H2396   1.036       .  S
N2366      C3287   1.354       .  A
N2366      C2374   1.352   1_565  A
C2367      C2375   1.389       .  A
C2367      C2383   1.420       .  A
C2368      C2384   1.416       .  A
C2368      C2376   1.387       .  A
C2369      C2377   1.388       .  A
C2369      C2386   1.412       .  A
C2370      C2385   1.415       .  A
C2370      C2378   1.388       .  A
C2371      N3278   1.355       .  A
C2371      C2383   1.417       .  A
C2371      C2379   1.387       .  A
C2372      C2386   1.408       .  A
C2372      C2380   1.384       .  A
C2373      N3280   1.348       .  A
C2373      C2381   1.386       .  A
C2373      C2384   1.405       .  A
C2374      C2382   1.388       .  A
C2374      C2385   1.417       .  A
C2375      H2387   1.082       .  S
C2376      H2388   1.082       .  S
C2377      H2389   1.083       .  S
C2378      H2390   1.083       .  S
C2379      C3294   1.372       .  A
C2379      H2391   1.082       .  S
C2380      C3293   1.370   1_545  A
C2380      H2392   1.083       .  S
C2381      C3296   1.370       .  A
C2381      H2393   1.083       .  S
C2382      C3295   1.374   1_545  A
C2382      H2394   1.082       .  S
C2383      C2708   1.490       .  S
C2384      C2680   1.481       .  S
C2385      C2664   1.481       .  S
C2386      C2691   1.482       .  S
C2397      C2398   1.543       .  S
C2397      C2403   1.548       .  S
C2397      C2401   1.552       .  S
C2397      C2723   1.527       .  S
C2398      H2405   1.086       .  S
C2398      C2399   1.365       .  D
C2399      C2400   1.535       .  S
C2399      C2655   1.478       .  S
C2400      C2404   1.527       .  S
C2400      C2402   1.531       .  S
C2400      H2406   1.112       .  S
C2401      H2407   1.086       .  S
C2401      C2402   1.371       .  D
C2402      C2652   1.488       .  S
C2403      H2408   1.086       .  S
C2403      C2404   1.368       .  D
C2404      C2660   1.483       .  S
C2409      C2410   1.536       .  S
C2409      C2415   1.547       .  S
C2409      C2413   1.536       .  S
C2409      C2731   1.513       .  S
C2410      H2417   1.086       .  S
C2410      C2411   1.362       .  D
C2411      C2412   1.539       .  S
C2411      C2648   1.479       .  S
C2412      C2416   1.533       .  S
C2412      C2414   1.540       .  S
C2412      H2418   1.111       .  S
C2413      H2419   1.084       .  S
C2413      C2414   1.367       .  D
C2414      C2639   1.486       .  S
C2415      H2420   1.085       .  S
C2415      C2416   1.372       .  D
C2416      C2643   1.488       .  S
N2421      C2425   1.354       .  A
N2421      H2453   1.040       .  S
N2422      C2429   1.351       .  A
N2423      C2427   1.357       .  A
N2423      H2454   1.039       .  S
N2424      C2431   1.355       .  A
C2425      C2433   1.388       .  A
C2425      C2441   1.415       .  A
C2426      C2442   1.416       .  A
C2426      C2434   1.386       .  A
C2427      C2435   1.387       .  A
C2427      C2444   1.422       .  A
C2428      C2443   1.418       .  A
C2428      C2436   1.389       .  A
C2429      C2441   1.410       .  A
C2429      C2437   1.385       .  A
C2430      C2444   1.416       .  A
C2430      C2438   1.386       .  A
C2431      C2439   1.386       .  A
C2431      C2442   1.417       .  A
C2432      C2440   1.387       .  A
C2432      C2443   1.418       .  A
C2433      H2445   1.082       .  S
C2434      H2446   1.082       .  S
C2435      H2447   1.082       .  S
C2436      H2448   1.082       .  S
C2437      H2449   1.082       .  S
C2438      H2450   1.082       .  S
C2439      H2451   1.082       .  S
C2440      H2452   1.081       .  S
C2441      C2640   1.484       .  S
C2442      C2675   1.497       .  S
C2443      C2704   1.488       .  S
C2444      C2651   1.496       .  S
C2455      C2456   1.538       .  S
C2455      C2461   1.552       .  S
C2455      C2459   1.543       .  S
C2455      C2740   1.531       .  S
C2456      H2463   1.086       .  S
C2456      C2457   1.363       .  D
C2457      C2458   1.539       .  S
C2457      C2632   1.485       .  S
C2458      C2462   1.533       .  S
C2458      C2460   1.546       .  S
C2458      H2464   1.106       .  S
C2459      H2465   1.086       .  S
C2459      C2460   1.370       .  D
C2460      C2628   1.499       .  S
C2461      H2466   1.085       .  S
C2461      C2462   1.374       .  D
C2462      C2635   1.489       .  S
N2467      C2472   1.356       .  A
N2467      H2499   1.039       .  S
N2468      C3389   1.358   1_545  A
N2468      C2476   1.355       .  A
N2469      C2474   1.358       .  A
N2469      H2500   1.034       .  S
N2470      C3391   1.353   1_545  A
N2470      C2478   1.355       .  A
C2471      C2479   1.386       .  A
C2471      C2487   1.417       .  A
C2472      C2488   1.419       .  A
C2472      C2480   1.387       .  A
C2473      C2481   1.388       .  A
C2473      C2490   1.422       .  A
C2474      C2489   1.420       .  A
C2474      C2482   1.386       .  A
C2475      N3382   1.356       .  A
C2475      C2487   1.417       .  A
C2475      C2483   1.385       .  A
C2476      C2490   1.422       .  A
C2476      C2484   1.388       .  A
C2477      N3384   1.352       .  A
C2477      C2485   1.386       .  A
C2477      C2488   1.413       .  A
C2478      C2486   1.386       .  A
C2478      C2489   1.419       .  A
C2479      H2491   1.082       .  S
C2480      H2492   1.082       .  S
C2481      H2493   1.082       .  S
C2482      H2494   1.082       .  S
C2483      C3398   1.375       .  A
C2483      H2495   1.082       .  S
C2484      C3397   1.375   1_545  A
C2484      H2496   1.082       .  S
C2485      C3400   1.373       .  A
C2485      H2497   1.083       .  S
C2486      C3399   1.371   1_545  A
C2486      H2498   1.082       .  S
C2487      C2659   1.496       .  S
C2488      C2647   1.489       .  S
C2489      C2636   1.499       .  S
C2490      C2623   1.494       .  S
N2501      C2506   1.355       .  A
N2501      H2533   1.037       .  S
N2502      C3423   1.354       .  A
N2502      C2510   1.355   1_565  A
N2503      C2508   1.357       .  A
N2503      H2534   1.037       .  S
N2504      C3425   1.354       .  A
N2504      C2512   1.353   1_565  A
C2505      C2513   1.385       .  A
C2505      C2521   1.417       .  A
C2506      C2522   1.414       .  A
C2506      C2514   1.387       .  A
C2507      C2515   1.388       .  A
C2507      C2524   1.416       .  A
C2508      C2523   1.419       .  A
C2508      C2516   1.387       .  A
C2509      N3416   1.354       .  A
C2509      C2521   1.415       .  A
C2509      C2517   1.385       .  A
C2510      C2524   1.417       .  A
C2510      C2518   1.385       .  A
C2511      N3418   1.354       .  A
C2511      C2519   1.386       .  A
C2511      C2522   1.416       .  A
C2512      C2520   1.385       .  A
C2512      C2523   1.413       .  A
C2513      H2525   1.083       .  S
C2514      H2526   1.082       .  S
C2515      H2527   1.082       .  S
C2516      H2528   1.082       .  S
C2517      C3432   1.372       .  A
C2517      H2529   1.082       .  S
C2518      C3431   1.373   1_545  A
C2518      H2530   1.082       .  S
C2519      C3434   1.372       .  A
C2519      H2531   1.082       .  S
C2520      C3433   1.371   1_545  A
C2520      H2532   1.082       .  S
C2521      C2684   1.491       .  S
C2522      C2644   1.491       .  S
C2523      C2631   1.491       .  S
C2524      C2668   1.495       .  S
N2535      C2540   1.359       .  A
N2535      H2567   1.039       .  S
N2536      C2543   1.353       .  A
N2537      C2542   1.360       .  A
N2537      H2568   1.039       .  S
N2538      C2545   1.357       .  A
C2539      C2547   1.388       .  A
C2539      C2555   1.421       .  A
C2540      C2556   1.424       .  A
C2540      C2548   1.389       .  A
C2541      C2549   1.386       .  A
C2541      C2558   1.414       .  A
C2542      C2557   1.423       .  A
C2542      C2550   1.386       .  A
C2543      C2555   1.415       .  A
C2543      C2551   1.385       .  A
C2544      C2558   1.417       .  A
C2544      C2552   1.386       .  A
C2545      C2553   1.386       .  A
C2545      C2556   1.420       .  A
C2546      C2554   1.386       .  A
C2546      C2557   1.419       .  A
C2547      H2559   1.082       .  S
C2548      H2560   1.082       .  S
C2549      H2561   1.083       .  S
C2550      H2562   1.083       .  S
C2551      H2563   1.082       .  S
C2552      H2564   1.082       .  S
C2553      H2565   1.081       .  S
C2554      H2566   1.082       .  S
C2555      C2619   1.493       .  S
C2556      C2627   1.499       .  S
C2557      C2671   1.505       .  S
C2558      C2696   1.496       .  S
C2569      C2570   1.545       .  S
C2569      C2575   1.534       .  S
C2569      C2573   1.543       .  S
C2569      C2736   1.514       .  S
C2570      H2577   1.085       .  S
C2570      C2571   1.369       .  D
C2571      C2572   1.534       .  S
C2571      C2624   1.487       .  S
C2572      C2576   1.539       .  S
C2572      C2574   1.541       .  S
C2572      H2578   1.109       .  S
C2573      H2579   1.086       .  S
C2573      C2574   1.368       .  D
C2574      C2620   1.491       .  S
C2575      H2580   1.087       .  S
C2575      C2576   1.359       .  D
C2576      C2615   1.473       .  S
N2581      C2585   1.354       .  A
N2581      H2613   1.039       .  S
N2582      C3503   1.351       .  A
N2582      C2590   1.350       .  A
N2583      C2587   1.355       .  A
N2583      H2614   1.040       .  S
N2584      C3505   1.355       .  A
N2584      C2592   1.353       .  A
C2585      C2593   1.388       .  A
C2585      C2601   1.417       .  A
C2586      C2602   1.420       .  A
C2586      C2594   1.387       .  A
C2587      C2595   1.388       .  A
C2587      C2604   1.416       .  A
C2588      C2603   1.421       .  A
C2588      C2596   1.387       .  A
C2589      N3496   1.350       .  A
C2589      C2601   1.411       .  A
C2589      C2597   1.387       .  A
C2590      C2604   1.410       .  A
C2590      C2598   1.387       .  A
C2591      N3498   1.354       .  A
C2591      C2599   1.388       .  A
C2591      C2602   1.420       .  A
C2592      C2600   1.386       .  A
C2592      C2603   1.415       .  A
C2593      H2605   1.082       .  S
C2594      H2606   1.082       .  S
C2595      H2607   1.082       .  S
C2596      H2608   1.082       .  S
C2597      C3512   1.370   1_545  A
C2597      H2609   1.083       .  S
C2598      C3511   1.370       .  A
C2598      H2610   1.083       .  S
C2599      C3514   1.372   1_545  A
C2599      H2611   1.082       .  S
C2600      C3513   1.372       .  A
C2600      H2612   1.083       .  S
C2601      C2616   1.481       .  S
C2602      C2687   1.493       .  S
C2603      C2700   1.491       .  S
C2604      C2656   1.482       .  S
C2615      H2617   1.087       .  S
C2615      C2616   1.339       .  D
C2616      H2618   1.087       .  S
C2619      H2621   1.086       .  S
C2619      C2620   1.346       .  D
C2620      H2622   1.087       .  S
C2623      H2625   1.086       .  S
C2623      C2624   1.345       .  D
C2624      H2626   1.087       .  S
C2627      H2629   1.083       .  S
C2627      C2628   1.349       .  D
C2628      H2630   1.087       .  S
C2631      H2633   1.086       .  S
C2631      C2632   1.344       .  D
C2632      H2634   1.086       .  S
C2635      H2637   1.087       .  S
C2635      C2636   1.346       .  D
C2636      H2638   1.085       .  S
C2639      H2641   1.087       .  S
C2639      C2640   1.347       .  D
C2640      H2642   1.083       .  S
C2643      H2645   1.087       .  S
C2643      C2644   1.345       .  D
C2644      H2646   1.084       .  S
C2647      H2649   1.087       .  S
C2647      C2648   1.343       .  D
C2648      H2650   1.087       .  S
C2651      H2653   1.086       .  S
C2651      C2652   1.346       .  D
C2652      H2654   1.087       .  S
C2655      H2657   1.086       .  S
C2655      C2656   1.341       .  D
C2656      H2658   1.087       .  S
C2659      H2661   1.086       .  S
C2659      C2660   1.346       .  D
C2660      H2662   1.087       .  S
C2663      H2665   1.086       .  S
C2663      C2664   1.341       .  D
C2664      H2666   1.086       .  S
C2667      H2669   1.087       .  S
C2667      C2668   1.347       .  D
C2668      H2670   1.086       .  S
C2671      H2673   1.086       .  S
C2671      C2672   1.348       .  D
C2672      H2674   1.087       .  S
C2675      H2677   1.085       .  S
C2675      C2676   1.344       .  D
C2676      H2678   1.087       .  S
C2679      H2681   1.086       .  S
C2679      C2680   1.338       .  D
C2680      H2682   1.086       .  S
C2683      H2685   1.087       .  S
C2683      C2684   1.345       .  D
C2684      H2686   1.085       .  S
C2687      H2689   1.086       .  S
C2687      C2688   1.342       .  D
C2688      H2690   1.088       .  S
C2691      H2693   1.087       .  S
C2691      C2692   1.340       .  D
C2692      H2694   1.087       .  S
C2695      H2697   1.087       .  S
C2695      C2696   1.342       .  D
C2696      H2698   1.086       .  S
C2699      H2701   1.086       .  S
C2699      C2700   1.345       .  D
C2700      H2702   1.087       .  S
C2703      H2705   1.088       .  S
C2703      C2704   1.339       .  D
C2704      H2706   1.083       .  S
C2707      H2709   1.087       .  S
C2707      C2708   1.344       .  D
C2708      H2710   1.084       .  S
C2711      H2713   1.088       .  S
C2711      C2712   1.343       .  D
C2712      H2714   1.086       .  S
C2715      H2717   1.086       .  S
C2715      C2716   1.345       .  D
C2716      H2718   1.087       .  S
C2719      H2721   1.087       .  S
C2719      C2720   1.350       .  D
C2720      H2722   1.086       .  S
C2723      H2725   1.087       .  S
C2723      C2724   1.352       .  D
C2724      H2726   1.087       .  S
C2727      H2729   1.087       .  S
C2727      C2728   1.346       .  D
C2728      H2730   1.087       .  S
C2731      H2733   1.087       .  S
C2731      C2732   1.342       .  D
C2732      H2734   1.087       .  S
C2735      H2737   1.087       .  S
C2735      C2736   1.348       .  D
C2736      H2738   1.087       .  S
C2739      H2741   1.087       .  S
C2739      C2740   1.354       .  D
C2740      H2742   1.086       .  S
O2743      C2751   1.267       .  A
O2743     Co2763   1.996       .  S
O2744      C2752   1.266       .  A
O2744     Co2764   1.972       .  S
O2745      C2753   1.301       .  A
O2745     Co2765   2.134       .  S
O2746      C2754   1.273       .  A
O2746     Co2766   2.026       .  S
O2747      C2753   1.258       .  A
O2747     Co2764   1.892       .  S
O2748      C2754   1.265       .  A
O2748     Co2763   1.981       .  S
O2749      C2752   1.279       .  A
O2749     Co2766   2.037       .  S
O2750      C2751   1.264       .  A
O2750     Co2765   2.002       .  S
C2751      C3196   1.489       .  S
C2752      C3172   1.480       .  S
C2753      C3192   1.487       .  S
C2754      C3184   1.484       .  S
O2755      C2768   1.276       .  A
O2755     Co2763   2.045       .  S
O2756      C2769   1.291       .  A
O2756     Co2764   2.101       .  S
O2757      C2770   1.272       .  A
O2757     Co2765   1.982       .  S
O2758      C2771   1.259       .  A
O2758     Co2766   1.978       .  S
O2759      C2771   1.258       .  A
O2759     Co2764   1.994       .  S
O2760      C2770   1.277       .  A
O2760     Co2763   2.021       .  S
O2761      C2768   1.263       .  A
O2761     Co2766   1.969       .  S
O2762      C2769   1.269       .  A
O2762     Co2765   1.913       .  S
Co2763     O2767   2.044       .  S
Co2764     O2767   2.005       .  S
Co2765     O2767   2.038       .  S
Co2766     O2767   2.057       .  S
C2768      C3177   1.496       .  S
C2769      C3181   1.486       .  S
C2770      C3189   1.481       .  S
C2771      C3169   1.468       .  S
C2772      C2773   1.543       .  S
C2772      C2778   1.533       .  S
C2772      C2776   1.539       .  S
C2772      C3168   1.504       .  S
C2773      H2780   1.086       .  S
C2773      C2774   1.369       .  D
C2774      C2775   1.531       .  S
C2774      C3164   1.477       .  S
C2775      C2779   1.540       .  S
C2775      C2777   1.541       .  S
C2775      H2781   1.110       .  S
C2776      H2782   1.087       .  S
C2776      C2777   1.361       .  D
C2777      C3160   1.482       .  S
C2778      H2783   1.087       .  S
C2778      C2779   1.359       .  D
C2779      C3156   1.473       .  S
C2784      C2785   1.539       .  S
C2784      C2790   1.546       .  S
C2784      C2788   1.544       .  S
C2784      C3173   1.518       .  S
C2785      H2792   1.085       .  S
C2785      C2786   1.369       .  D
C2786      C2787   1.532       .  S
C2786      C3145   1.481       .  S
C2787      C2791   1.535       .  S
C2787      C2789   1.535       .  S
C2787      H2793   1.111       .  S
C2788      H2794   1.085       .  S
C2788      C2789   1.369       .  D
C2789      C3152   1.489       .  S
C2790      H2795   1.086       .  S
C2790      C2791   1.367       .  D
C2791      C3149   1.486       .  S
C2796      C2797   1.551       .  S
C2796      C2802   1.543       .  S
C2796      C2800   1.550       .  S
C2796      C3176   1.529       .  S
C2797      H2804   1.085       .  S
C2797      C2798   1.369       .  D
C2798      C2799   1.530       .  S
C2798      C3140   1.489       .  S
C2799      C2803   1.535       .  S
C2799      C2801   1.533       .  S
C2799      H2805   1.109       .  S
C2800      H2806   1.085       .  S
C2800      C2801   1.374       .  D
C2801      C3133   1.492       .  S
C2802      H2807   1.086       .  S
C2802      C2803   1.366       .  D
C2803      C3136   1.485       .  S
C2808      C2809   1.539       .  S
C2808      C2814   1.547       .  S
C2808      C2812   1.547       .  S
C2808      C3185   1.522       .  S
C2809      H2816   1.086       .  S
C2809      C2810   1.362       .  D
C2810      C2811   1.539       .  S
C2810      C3120   1.479       .  S
C2811      C2815   1.531       .  S
C2811      C2813   1.535       .  S
C2811      H2817   1.111       .  S
C2812      H2818   1.086       .  S
C2812      C2813   1.369       .  D
C2813      C3129   1.490       .  S
C2814      H2819   1.086       .  S
C2814      C2815   1.371       .  D
C2815      C3124   1.484       .  S
N2820      C2825   1.356       .  A
N2820      H2852   1.038       .  S
N2821      C2829   1.354       .  A
N2822      C2827   1.355       .  A
N2822      H2853   1.041       .  S
N2823      C2831   1.352       .  A
C2824      C2832   1.385       .  A
C2824      C2840   1.414       .  A
C2825      C2841   1.418       .  A
C2825      C2833   1.387       .  A
C2826      C2834   1.388       .  A
C2826      C2843   1.423       .  A
C2827      C2842   1.421       .  A
C2827      C2835   1.389       .  A
C2828      C2840   1.410       .  A
C2828      C2836   1.386       .  A
C2829      C2843   1.419       .  A
C2829      C2837   1.387       .  A
C2830      C2838   1.385       .  A
C2830      C2841   1.413       .  A
C2831      C2839   1.387       .  A
C2831      C2842   1.414       .  A
C2832      H2844   1.082       .  S
C2833      H2845   1.082       .  S
C2834      H2846   1.082       .  S
C2835      H2847   1.082       .  S
C2836      H2848   1.082       .  S
C2837      H2849   1.083       .  S
C2838      H2850   1.083       .  S
C2839      H2851   1.083       .  S
C2840      C3165   1.488       .  S
C2841      C3137   1.488       .  S
C2842      C3121   1.487       .  S
C2843      C3148   1.491       .  S
C2854      C2855   1.543       .  S
C2854      C2860   1.558       .  S
C2854      C2858   1.536       .  S
C2854      C3180   1.523       .  S
C2855      H2862   1.085       .  S
C2855      C2856   1.367       .  D
C2856      C2857   1.531       .  S
C2856      C3112   1.484       .  S
C2857      C2861   1.528       .  S
C2857      C2859   1.534       .  S
C2857      H2863   1.112       .  S
C2858      H2864   1.085       .  S
C2858      C2859   1.365       .  D
C2859      C3109   1.485       .  S
C2860      H2865   1.084       .  S
C2860      C2861   1.374       .  D
C2861      C3117   1.483       .  S
C2866      C2867   1.537       .  S
C2866      C2872   1.544       .  S
C2866      C2870   1.550       .  S
C2866      C3188   1.522       .  S
C2867      H2874   1.086       .  S
C2867      C2868   1.362       .  D
C2868      C2869   1.538       .  S
C2868      C3105   1.481       .  S
C2869      C2873   1.537       .  S
C2869      C2871   1.534       .  S
C2869      H2875   1.110       .  S
C2870      H2876   1.085       .  S
C2870      C2871   1.372       .  D
C2871      C3096   1.495       .  S
C2872      H2877   1.085       .  S
C2872      C2873   1.371       .  D
C2873      C3100   1.489       .  S
N2878      C3340   1.358   1_554  A
N2878      C2882   1.357       .  A
N2878      H2910   1.039       .  S
N2879      C2886   1.356       .  A
N2880      C3342   1.358   1_554  A
N2880      C2884   1.357       .  A
N2880      H2911   1.033       .  S
N2881      C2888   1.356       .  A
C2882      C2890   1.389       .  A
C2882      C2898   1.422       .  A
C2883      N3335   1.357       .  A
C2883      C2899   1.419       .  A
C2883      C2891   1.387       .  A
C2884      C2892   1.387       .  A
C2884      C2901   1.424       .  A
C2885      N3337   1.356       .  A
C2885      C2900   1.422       .  A
C2885      C2893   1.389       .  A
C2886      C2898   1.420       .  A
C2886      C2894   1.385       .  A
C2887      C2901   1.418       .  A
C2887      C2895   1.388       .  A
C2888      C2896   1.386       .  A
C2888      C2899   1.419       .  A
C2889      C2897   1.387       .  A
C2889      C2900   1.415       .  A
C2890      C3348   1.375   1_554  A
C2890      H2902   1.082       .  S
C2891      C3347   1.375       .  A
C2891      H2903   1.082       .  S
C2892      C3350   1.369   1_554  A
C2892      H2904   1.082       .  S
C2893      C3349   1.371       .  A
C2893      H2905   1.081       .  S
C2894      H2906   1.082       .  S
C2895      H2907   1.082       .  S
C2896      H2908   1.082       .  S
C2897      H2909   1.083       .  S
C2898      C3097   1.498       .  S
C2899      C3132   1.499       .  S
C2900      C3161   1.488       .  S
C2901      C3108   1.490       .  S
C2912      C2913   1.540       .  S
C2912      C2918   1.541       .  S
C2912      C2916   1.540       .  S
C2912      C3197   1.526       .  S
C2913      H2920   1.086       .  S
C2913      C2914   1.369       .  D
C2914      C2915   1.545       .  S
C2914      C3089   1.492       .  S
C2915      C2919   1.537       .  S
C2915      C2917   1.547       .  S
C2915      H2921   1.108       .  S
C2916      H2922   1.086       .  S
C2916      C2917   1.367       .  D
C2917      C3085   1.494       .  S
C2918      H2923   1.084       .  S
C2918      C2919   1.370       .  D
C2919      C3092   1.492       .  S
N2924      C2929   1.352       .  A
N2924      H2956   1.036       .  S
N2925      C2933   1.354       .  A
N2926      C2931   1.356       .  A
N2926      H2957   1.038       .  S
N2927      C2935   1.350       .  A
C2928      C2936   1.387       .  A
C2928      C2944   1.420       .  A
C2929      C2945   1.413       .  A
C2929      C2937   1.386       .  A
C2930      C2938   1.391       .  A
C2930      C2947   1.426       .  A
C2931      C2946   1.415       .  A
C2931      C2939   1.386       .  A
C2932      C2944   1.418       .  A
C2932      C2940   1.386       .  A
C2933      C2947   1.419       .  A
C2933      C2941   1.387       .  A
C2934      C2942   1.386       .  A
C2934      C2945   1.415       .  A
C2935      C2943   1.386       .  A
C2935      C2946   1.409       .  A
C2936      H2948   1.082       .  S
C2937      H2949   1.083       .  S
C2938      H2950   1.082       .  S
C2939      H2951   1.082       .  S
C2940      H2952   1.082       .  S
C2941      H2953   1.082       .  S
C2942      H2954   1.082       .  S
C2943      H2955   1.082       .  S
C2944      C3116   1.503       .  S
C2945      C3104   1.484       .  S
C2946      C3093   1.487       .  S
C2947      C3080   1.499       .  S
N2958      C2963   1.355       .  A
N2958      C3419   1.354   1_554  A
N2958      H2990   1.033   1_554  S
N2959      C2967   1.354       .  A
N2960      C2965   1.360   1_556  A
N2960      C3421   1.357       .  A
N2960      H2991   1.034       .  S
N2961      C2969   1.353       .  A
C2962      N3415   1.356       .  A
C2962      C2970   1.389       .  A
C2962      C2978   1.421       .  A
C2963      C2979   1.421       .  A
C2963      C2971   1.388       .  A
C2964      N3417   1.354       .  A
C2964      C2972   1.384       .  A
C2964      C2981   1.416       .  A
C2965      C2980   1.425       .  A
C2965      C2973   1.387       .  A
C2966      C2978   1.419       .  A
C2966      C2974   1.386       .  A
C2967      C2981   1.413       .  A
C2967      C2975   1.385       .  A
C2968      C2976   1.388       .  A
C2968      C2979   1.420       .  A
C2969      C2977   1.387       .  A
C2969      C2980   1.420       .  A
C2970      C3428   1.374       .  A
C2970      H2982   1.083       .  S
C2971      C3427   1.379   1_554  A
C2971      H2983   1.082       .  S
C2972      C3430   1.375       .  A
C2972      H2984   1.082       .  S
C2973      C3429   1.372   1_554  A
C2973      H2985   1.082       .  S
C2974      H2986   1.082       .  S
C2975      H2987   1.082       .  S
C2976      H2988   1.082       .  S
C2977      H2989   1.082       .  S
C2978      C3141   1.493       .  S
C2979      C3101   1.492       .  S
C2980      C3088   1.496       .  S
C2981      C3125   1.496       .  S
N2992      C2997   1.360       .  A
N2992      H3024   1.040       .  S
N2993      C3000   1.355       .  A
N2993      C3458   1.351   1_554  A
N2994      C2999   1.357       .  A
N2994      H3025   1.035       .  S
N2995      C3002   1.353   1_556  A
N2995      C3460   1.354       .  A
C2996      C3004   1.385       .  A
C2996      C3012   1.422       .  A
C2997      C3013   1.423       .  A
C2997      C3005   1.387       .  A
C2998      C3006   1.388       .  A
C2998      C3015   1.425       .  A
C2999      C3014   1.417       .  A
C2999      C3007   1.386       .  A
C3000      C3012   1.418       .  A
C3000      C3008   1.387       .  A
C3001      N3450   1.355       .  A
C3001      C3015   1.423       .  A
C3001      C3009   1.388       .  A
C3002      C3010   1.386   1_554  A
C3002      C3013   1.414       .  A
C3003      N3452   1.354       .  A
C3003      C3011   1.383       .  A
C3003      C3014   1.413       .  A
C3004      H3016   1.082       .  S
C3005      H3017   1.082       .  S
C3006      H3018   1.082       .  S
C3007      H3019   1.082       .  S
C3008      C3466   1.371   1_554  A
C3008      H3020   1.082       .  S
C3009      C3465   1.371       .  A
C3009      H3021   1.082       .  S
C3010      C3468   1.373       .  A
C3010      H3022   1.082   1_556  S
C3011      C3467   1.371       .  A
C3011      H3023   1.082       .  S
C3012      C3076   1.501       .  S
C3013      C3084   1.498       .  S
C3014      C3128   1.495       .  S
C3015      C3153   1.494       .  S
C3026      C3027   1.551       .  S
C3026      C3032   1.536       .  S
C3026      C3030   1.543       .  S
C3026      C3193   1.528       .  S
C3027      H3034   1.085       .  S
C3027      C3028   1.373       .  D
C3028      C3029   1.535       .  S
C3028      C3081   1.491       .  S
C3029      C3033   1.543       .  S
C3029      C3031   1.542       .  S
C3029      H3035   1.109       .  S
C3030      H3036   1.086       .  S
C3030      C3031   1.368       .  D
C3031      C3077   1.495       .  S
C3032      H3037   1.086       .  S
C3032      C3033   1.364       .  D
C3033      C3072   1.483       .  S
N3038      C3500   1.357       .  A
N3038      C3042   1.356   1_556  A
N3038      H3070   1.038       .  S
N3039      C3047   1.353   1_545  A
N3040      C3502   1.359   1_554  A
N3040      C3044   1.354       .  A
N3040      H3071   1.038   1_554  S
N3041      C3049   1.351   1_545  A
C3042      C3050   1.389       .  A
C3042      C3058   1.420       .  A
C3043      N3495   1.352       .  A
C3043      C3059   1.413       .  A
C3043      C3051   1.388       .  A
C3044      C3052   1.388       .  A
C3044      C3061   1.419       .  A
C3045      N3497   1.353       .  A
C3045      C3060   1.416       .  A
C3045      C3053   1.389       .  A
C3046      C3058   1.417       .  A
C3046      C3054   1.385       .  A
C3047      C3061   1.416       .  A
C3047      C3055   1.386       .  A
C3048      C3056   1.386       .  A
C3048      C3059   1.414       .  A
C3049      C3057   1.387       .  A
C3049      C3060   1.413       .  A
C3050      C3508   1.370   1_554  A
C3050      H3062   1.081       .  S
C3051      C3507   1.373       .  A
C3051      H3063   1.083       .  S
C3052      C3510   1.370   1_554  A
C3052      H3064   1.082       .  S
C3053      C3509   1.371       .  A
C3053      H3065   1.083       .  S
C3054      H3066   1.083       .  S
C3055      H3067   1.082       .  S
C3056      H3068   1.082       .  S
C3057      H3069   1.083       .  S
C3058      C3073   1.491       .  S
C3059      C3144   1.483       .  S
C3060      C3157   1.480       .  S
C3061      C3113   1.487       .  S
C3072      H3074   1.087       .  S
C3072      C3073   1.343       .  D
C3073      H3075   1.086       .  S
C3076      H3078   1.086       .  S
C3076      C3077   1.350       .  D
C3077      H3079   1.086       .  S
C3080      H3082   1.085       .  S
C3080      C3081   1.348       .  D
C3081      H3083   1.087       .  S
C3084      H3086   1.086       .  S
C3084      C3085   1.346       .  D
C3085      H3087   1.087       .  S
C3088      H3090   1.085       .  S
C3088      C3089   1.347       .  D
C3089      H3091   1.087       .  S
C3092      H3094   1.087       .  S
C3092      C3093   1.346       .  D
C3093      H3095   1.083       .  S
C3096      H3098   1.087       .  S
C3096      C3097   1.348       .  D
C3097      H3099   1.084       .  S
C3100      H3102   1.087       .  S
C3100      C3101   1.345       .  D
C3101      H3103   1.084       .  S
C3104      H3106   1.086       .  S
C3104      C3105   1.341       .  D
C3105      H3107   1.087       .  S
C3108      H3110   1.085       .  S
C3108      C3109   1.346       .  D
C3109      H3111   1.087       .  S
C3112      H3114   1.087       .  S
C3112      C3113   1.344       .  D
C3113      H3115   1.083       .  S
C3116      H3118   1.087       .  S
C3116      C3117   1.344       .  D
C3117      H3119   1.087       .  S
C3120      H3122   1.087       .  S
C3120      C3121   1.342       .  D
C3121      H3123   1.087       .  S
C3124      H3126   1.087       .  S
C3124      C3125   1.344       .  D
C3125      H3127   1.086       .  S
C3128      H3130   1.085       .  S
C3128      C3129   1.347       .  D
C3129      H3131   1.087       .  S
C3132      H3134   1.085       .  S
C3132      C3133   1.344       .  D
C3133      H3135   1.087       .  S
C3136      H3138   1.086       .  S
C3136      C3137   1.344       .  D
C3137      H3139   1.085       .  S
C3140      H3142   1.087       .  S
C3140      C3141   1.344       .  D
C3141      H3143   1.085       .  S
C3144      H3146   1.084       .  S
C3144      C3145   1.341       .  D
C3145      H3147   1.087       .  S
C3148      H3150   1.087       .  S
C3148      C3149   1.346       .  D
C3149      H3151   1.086       .  S
C3152      H3154   1.087       .  S
C3152      C3153   1.346       .  D
C3153      H3155   1.085       .  S
C3156      H3158   1.087       .  S
C3156      C3157   1.338       .  D
C3157      H3159   1.087       .  S
C3160      H3162   1.087       .  S
C3160      C3161   1.340       .  D
C3161      H3163   1.086       .  S
C3164      H3166   1.087       .  S
C3164      C3165   1.342       .  D
C3165      H3167   1.086       .  S
C3168      H3170   1.087       .  S
C3168      C3169   1.340       .  D
C3169      H3171   1.087       .  S
C3172      H3174   1.086       .  S
C3172      C3173   1.349       .  D
C3173      H3175   1.087       .  S
C3176      H3178   1.087       .  S
C3176      C3177   1.355       .  D
C3177      H3179   1.086       .  S
C3180      H3182   1.087       .  S
C3180      C3181   1.344       .  D
C3181      H3183   1.083       .  S
C3184      H3186   1.086       .  S
C3184      C3185   1.350       .  D
C3185      H3187   1.087       .  S
C3188      H3190   1.087       .  S
C3188      C3189   1.349       .  D
C3189      H3191   1.087       .  S
C3192      H3194   1.087       .  S
C3192      C3193   1.344       .  D
C3193      H3195   1.087       .  S
C3196      H3198   1.086       .  S
C3196      C3197   1.348       .  D
C3197      H3199   1.087       .  S
O3200      C3208   1.266       .  A
O3200     Co3220   1.964       .  S
O3201      C3209   1.247       .  A
O3201     Co3221   1.953       .  S
O3202      C3210   1.249       .  A
O3202     Co3222   2.060       .  S
O3203      C3211   1.274       .  A
O3203     Co3223   2.023       .  S
O3204      C3210   1.231       .  A
O3204     Co3221   1.948       .  S
O3205      C3211   1.270       .  A
O3205     Co3220   1.969       .  S
O3206      C3209   1.272       .  A
O3206     Co3223   2.051       .  S
O3207      C3208   1.283       .  A
O3207     Co3222   2.052       .  S
C3208      C3653   1.489       .  S
C3209      C3629   1.479       .  S
C3210      C3649   1.487       .  S
C3211      C3641   1.479       .  S
O3212      C3225   1.267       .  A
O3212     Co3220   2.037       .  S
O3213      C3226   1.320       .  A
O3213     Co3221   2.172       .  S
O3214      C3227   1.267       .  A
O3214     Co3222   1.973       .  S
O3215      C3228   1.251       .  A
O3215     Co3223   1.955       .  S
O3216      C3228   1.264       .  A
O3216     Co3221   2.029       .  S
O3217      C3227   1.276       .  A
O3217     Co3220   2.031       .  S
O3218      C3225   1.257       .  A
O3218     Co3223   1.973       .  S
O3219      C3226   1.282       .  A
O3219     Co3222   1.877       .  S
Co3220     O3224   2.087       .  S
Co3221     O3224   2.118       .  S
Co3222     O3224   2.017       .  S
Co3223     O3224   2.095       .  S
C3225      C3634   1.496       .  S
C3226      C3638   1.493       .  S
C3227      C3646   1.487       .  S
C3228      C3626   1.484       .  S
C3229      C3230   1.540       .  S
C3229      C3235   1.540       .  S
C3229      C3233   1.540       .  S
C3229      C3625   1.516       .  S
C3230      H3237   1.086       .  S
C3230      C3231   1.368       .  D
C3231      C3232   1.529       .  S
C3231      C3621   1.470       .  S
C3232      C3236   1.542       .  S
C3232      C3234   1.546       .  S
C3232      H3238   1.111       .  S
C3233      H3239   1.086       .  S
C3233      C3234   1.368       .  D
C3234      C3617   1.487       .  S
C3235      H3240   1.087       .  S
C3235      C3236   1.360       .  D
C3236      C3613   1.489       .  S
C3241      C3242   1.547       .  S
C3241      C3247   1.550       .  S
C3241      C3245   1.529       .  S
C3241      C3630   1.521       .  S
C3242      H3249   1.085       .  S
C3242      C3243   1.373       .  D
C3243      C3244   1.532       .  S
C3243      C3602   1.485       .  S
C3244      C3248   1.535       .  S
C3244      C3246   1.535       .  S
C3244      H3250   1.111       .  S
C3245      H3251   1.085       .  S
C3245      C3246   1.362       .  D
C3246      C3609   1.478       .  S
C3247      H3252   1.086       .  S
C3247      C3248   1.369       .  D
C3248      C3606   1.489       .  S
C3253      C3254   1.547       .  S
C3253      C3259   1.540       .  S
C3253      C3257   1.554       .  S
C3253      C3633   1.531       .  S
C3254      H3261   1.085       .  S
C3254      C3255   1.368       .  D
C3255      C3256   1.537       .  S
C3255      C3597   1.492       .  S
C3256      C3260   1.538       .  S
C3256      C3258   1.534       .  S
C3256      H3262   1.111       .  S
C3257      H3263   1.085       .  S
C3257      C3258   1.376       .  D
C3258      C3590   1.493       .  S
C3259      H3264   1.086       .  S
C3259      C3260   1.365       .  D
C3260      C3593   1.486       .  S
C3265      C3266   1.537       .  S
C3265      C3271   1.545       .  S
C3265      C3269   1.547       .  S
C3265      C3642   1.515       .  S
C3266      H3273   1.087       .  S
C3266      C3267   1.358       .  D
C3267      C3268   1.535       .  S
C3267      C3577   1.475       .  S
C3268      C3272   1.531       .  S
C3268      C3270   1.535       .  S
C3268      H3274   1.111       .  S
C3269      H3275   1.086       .  S
C3269      C3270   1.371       .  D
C3270      C3586   1.485       .  S
C3271      H3276   1.085       .  S
C3271      C3272   1.370       .  D
C3272      C3581   1.482       .  S
N3277      C3282   1.352       .  A
N3277      H3309   1.037       .  S
N3278      C3286   1.355       .  A
N3279      C3284   1.355       .  A
N3279      H3310   1.040       .  S
N3280      C3288   1.349       .  A
C3281      C3289   1.387       .  A
C3281      C3297   1.418       .  A
C3282      C3298   1.412       .  A
C3282      C3290   1.386       .  A
C3283      C3291   1.388       .  A
C3283      C3300   1.420       .  A
C3284      C3299   1.413       .  A
C3284      C3292   1.387       .  A
C3285      C3297   1.414       .  A
C3285      C3293   1.389       .  A
C3286      C3300   1.416       .  A
C3286      C3294   1.385       .  A
C3287      C3295   1.386       .  A
C3287      C3298   1.415       .  A
C3288      C3296   1.386       .  A
C3288      C3299   1.406       .  A
C3289      H3301   1.082       .  S
C3290      H3302   1.082       .  S
C3291      H3303   1.082       .  S
C3292      H3304   1.082       .  S
C3293      H3305   1.083       .  S
C3294      H3306   1.083       .  S
C3295      H3307   1.082       .  S
C3296      H3308   1.083       .  S
C3297      C3622   1.486       .  S
C3298      C3594   1.488       .  S
C3299      C3578   1.481       .  S
C3300      C3605   1.495       .  S
C3311      C3312   1.547       .  S
C3311      C3317   1.556       .  S
C3311      C3315   1.551       .  S
C3311      C3637   1.538       .  S
C3312      H3319   1.086       .  S
C3312      C3313   1.365       .  D
C3313      C3314   1.532       .  S
C3313      C3569   1.481       .  S
C3314      C3318   1.526       .  S
C3314      C3316   1.531       .  S
C3314      H3320   1.111       .  S
C3315      H3321   1.085       .  S
C3315      C3316   1.370       .  D
C3316      C3566   1.491       .  S
C3317      H3322   1.085       .  S
C3317      C3318   1.374       .  D
C3318      C3574   1.488       .  S
C3323      C3324   1.538       .  S
C3323      C3329   1.548       .  S
C3323      C3327   1.546       .  S
C3323      C3645   1.521       .  S
C3324      H3331   1.086       .  S
C3324      C3325   1.362       .  D
C3325      C3326   1.537       .  S
C3325      C3562   1.481       .  S
C3326      C3330   1.531       .  S
C3326      C3328   1.536       .  S
C3326      H3332   1.111       .  S
C3327      H3333   1.086       .  S
C3327      C3328   1.367       .  D
C3328      C3553   1.488       .  S
C3329      H3334   1.085       .  S
C3329      C3330   1.374       .  D
C3330      C3557   1.483       .  S
N3335      C3339   1.357       .  A
N3335      H3367   1.039       .  S
N3336      C3343   1.353       .  A
N3337      C3341   1.359       .  A
N3337      H3368   1.038       .  S
N3338      C3345   1.355       .  A
C3339      C3347   1.388       .  A
C3339      C3355   1.420       .  A
C3340      C3356   1.420       .  A
C3340      C3348   1.386       .  A
C3341      C3349   1.386       .  A
C3341      C3358   1.421       .  A
C3342      C3357   1.425       .  A
C3342      C3350   1.389       .  A
C3343      C3355   1.416       .  A
C3343      C3351   1.385       .  A
C3344      C3358   1.414       .  A
C3344      C3352   1.385       .  A
C3345      C3353   1.386       .  A
C3345      C3356   1.417       .  A
C3346      C3354   1.387       .  A
C3346      C3357   1.422       .  A
C3347      H3359   1.082       .  S
C3348      H3360   1.082       .  S
C3349      H3361   1.082       .  S
C3350      H3362   1.081       .  S
C3351      H3363   1.082       .  S
C3352      H3364   1.082       .  S
C3353      H3365   1.082       .  S
C3354      H3366   1.082       .  S
C3355      C3554   1.496       .  S
C3356      C3589   1.500       .  S
C3357      C3618   1.495       .  S
C3358      C3565   1.497       .  S
C3369      C3370   1.539       .  S
C3369      C3375   1.553       .  S
C3369      C3373   1.542       .  S
C3369      C3654   1.522       .  S
C3370      H3377   1.086       .  S
C3370      C3371   1.363       .  D
C3371      C3372   1.539       .  S
C3371      C3546   1.486       .  S
C3372      C3376   1.529       .  S
C3372      C3374   1.532       .  S
C3372      H3378   1.107       .  S
C3373      H3379   1.086       .  S
C3373      C3374   1.369       .  D
C3374      C3542   1.481       .  S
C3375      H3380   1.085       .  S
C3375      C3376   1.372       .  D
C3376      C3549   1.490       .  S
N3381      C3386   1.355       .  A
N3381      H3413   1.034       .  S
N3382      C3390   1.354       .  A
N3383      C3388   1.357       .  A
N3383      H3414   1.038       .  S
N3384      C3392   1.354       .  A
C3385      C3393   1.387       .  A
C3385      C3401   1.422       .  A
C3386      C3402   1.421       .  A
C3386      C3394   1.388       .  A
C3387      C3395   1.387       .  A
C3387      C3404   1.423       .  A
C3388      C3403   1.419       .  A
C3388      C3396   1.386       .  A
C3389      C3401   1.421       .  A
C3389      C3397   1.386       .  A
C3390      C3404   1.422       .  A
C3390      C3398   1.389       .  A
C3391      C3399   1.386       .  A
C3391      C3402   1.417       .  A
C3392      C3400   1.387       .  A
C3392      C3403   1.417       .  A
C3393      H3405   1.082       .  S
C3394      H3406   1.081       .  S
C3395      H3407   1.082       .  S
C3396      H3408   1.083       .  S
C3397      H3409   1.082       .  S
C3398      H3410   1.082       .  S
C3399      H3411   1.082       .  S
C3400      H3412   1.082       .  S
C3401      C3573   1.509       .  S
C3402      C3561   1.489       .  S
C3403      C3550   1.497       .  S
C3404      C3537   1.494       .  S
N3415      C3420   1.357       .  A
N3415      H3447   1.037       .  S
N3416      C3424   1.353       .  A
N3417      C3422   1.353       .  A
N3417      H3448   1.038       .  S
N3418      C3426   1.351       .  A
C3419      C3427   1.386       .  A
C3419      C3435   1.419       .  A
C3420      C3436   1.419       .  A
C3420      C3428   1.387       .  A
C3421      C3429   1.388       .  A
C3421      C3438   1.425       .  A
C3422      C3437   1.417       .  A
C3422      C3430   1.389       .  A
C3423      C3435   1.419       .  A
C3423      C3431   1.387       .  A
C3424      C3438   1.419       .  A
C3424      C3432   1.388       .  A
C3425      C3433   1.387       .  A
C3425      C3436   1.418       .  A
C3426      C3434   1.389       .  A
C3426      C3437   1.416       .  A
C3427      H3439   1.082       .  S
C3428      H3440   1.082       .  S
C3429      H3441   1.082       .  S
C3430      H3442   1.080       .  S
C3431      H3443   1.082       .  S
C3432      H3444   1.082       .  S
C3433      H3445   1.082       .  S
C3434      H3446   1.083       .  S
C3435      C3598   1.494       .  S
C3436      C3558   1.498       .  S
C3437      C3545   1.482       .  S
C3438      C3582   1.490       .  S
N3449      C3454   1.357       .  A
N3449      H3481   1.038       .  S
N3450      C3457   1.357       .  A
N3451      C3456   1.357       .  A
N3451      H3482   1.039       .  S
N3452      C3459   1.353       .  A
C3453      C3461   1.387       .  A
C3453      C3469   1.418       .  A
C3454      C3470   1.422       .  A
C3454      C3462   1.387       .  A
C3455      C3463   1.389       .  A
C3455      C3472   1.414       .  A
C3456      C3471   1.420       .  A
C3456      C3464   1.387       .  A
C3457      C3469   1.421       .  A
C3457      C3465   1.386       .  A
C3458      C3472   1.415       .  A
C3458      C3466   1.387       .  A
C3459      C3467   1.388       .  A
C3459      C3470   1.419       .  A
C3460      C3468   1.386       .  A
C3460      C3471   1.416       .  A
C3461      H3473   1.082       .  S
C3462      H3474   1.082       .  S
C3463      H3475   1.082       .  S
C3464      H3476   1.082       .  S
C3465      H3477   1.082       .  S
C3466      H3478   1.083       .  S
C3467      H3479   1.082       .  S
C3468      H3480   1.082       .  S
C3469      C3533   1.494       .  S
C3470      C3541   1.495       .  S
C3471      C3585   1.498       .  S
C3472      C3610   1.476       .  S
C3483      C3484   1.552       .  S
C3483      C3489   1.536       .  S
C3483      C3487   1.545       .  S
C3483      C3650   1.523       .  S
C3484      H3491   1.085       .  S
C3484      C3485   1.371       .  D
C3485      C3486   1.531       .  S
C3485      C3538   1.492       .  S
C3486      C3490   1.539       .  S
C3486      C3488   1.541       .  S
C3486      H3492   1.108       .  S
C3487      H3493   1.086       .  S
C3487      C3488   1.370       .  D
C3488      C3534   1.493       .  S
C3489      H3494   1.086       .  S
C3489      C3490   1.363       .  D
C3490      C3529   1.480       .  S
N3495      C3499   1.355       .  A
N3495      H3527   1.040       .  S
N3496      C3504   1.353   1_545  A
N3497      C3501   1.355       .  A
N3497      H3528   1.039       .  S
N3498      C3506   1.355   1_545  A
C3499      C3507   1.387       .  A
C3499      C3515   1.414       .  A
C3500      C3516   1.417       .  A
C3500      C3508   1.387       .  A
C3501      C3509   1.387       .  A
C3501      C3518   1.415       .  A
C3502      C3517   1.419       .  A
C3502      C3510   1.387       .  A
C3503      C3515   1.407       .  A
C3503      C3511   1.386       .  A
C3504      C3518   1.412       .  A
C3504      C3512   1.387       .  A
C3505      C3513   1.386       .  A
C3505      C3516   1.417       .  A
C3506      C3514   1.384       .  A
C3506      C3517   1.416       .  A
C3507      H3519   1.082       .  S
C3508      H3520   1.083       .  S
C3509      H3521   1.082       .  S
C3510      H3522   1.082       .  S
C3511      H3523   1.083       .  S
C3512      H3524   1.082       .  S
C3513      H3525   1.082       .  S
C3514      H3526   1.082       .  S
C3515      C3530   1.482       .  S
C3516      C3601   1.494       .  S
C3517      C3614   1.500       .  S
C3518      C3570   1.486       .  S
C3529      H3531   1.086       .  S
C3529      C3530   1.341       .  D
C3530      H3532   1.087       .  S
C3533      H3535   1.085       .  S
C3533      C3534   1.347       .  D
C3534      H3536   1.086       .  S
C3537      H3539   1.084       .  S
C3537      C3538   1.346       .  D
C3538      H3540   1.087       .  S
C3541      H3543   1.086       .  S
C3541      C3542   1.344       .  D
C3542      H3544   1.087       .  S
C3545      H3547   1.082       .  S
C3545      C3546   1.342       .  D
C3546      H3548   1.086       .  S
C3549      H3551   1.087       .  S
C3549      C3550   1.344       .  D
C3550      H3552   1.085       .  S
C3553      H3555   1.087       .  S
C3553      C3554   1.348       .  D
C3554      H3556   1.086       .  S
C3557      H3559   1.087       .  S
C3557      C3558   1.344       .  D
C3558      H3560   1.086       .  S
C3561      H3563   1.086       .  S
C3561      C3562   1.343       .  D
C3562      H3564   1.087       .  S
C3565      H3567   1.085       .  S
C3565      C3566   1.346       .  D
C3566      H3568   1.087       .  S
C3569      H3571   1.086       .  S
C3569      C3570   1.345       .  D
C3570      H3572   1.087       .  S
C3573      H3575   1.086       .  S
C3573      C3574   1.349       .  D
C3574      H3576   1.087       .  S
C3577      H3579   1.087       .  S
C3577      C3578   1.337       .  D
C3578      H3580   1.087       .  S
C3581      H3583   1.087       .  S
C3581      C3582   1.343       .  D
C3582      H3584   1.085       .  S
C3585      H3587   1.086       .  S
C3585      C3586   1.346       .  D
C3586      H3588   1.087       .  S
C3589      H3591   1.085       .  S
C3589      C3590   1.346       .  D
C3590      H3592   1.087       .  S
C3593      H3595   1.086       .  S
C3593      C3594   1.343       .  D
C3594      H3596   1.086       .  S
C3597      H3599   1.087       .  S
C3597      C3598   1.348       .  D
C3598      H3600   1.085       .  S
C3601      H3603   1.086       .  S
C3601      C3602   1.343       .  D
C3602      H3604   1.087       .  S
C3605      H3607   1.087       .  S
C3605      C3606   1.348       .  D
C3606      H3608   1.086       .  S
C3609      H3611   1.087       .  S
C3609      C3610   1.344       .  D
C3610      H3612   1.085       .  S
C3613      H3615   1.087       .  S
C3613      C3614   1.346       .  D
C3614      H3616   1.087       .  S
C3617      H3619   1.086       .  S
C3617      C3618   1.346       .  D
C3618      H3620   1.087       .  S
C3621      H3623   1.087       .  S
C3621      C3622   1.343       .  D
C3622      H3624   1.086       .  S
C3625      H3627   1.087       .  S
C3625      C3626   1.348       .  D
C3626      H3628   1.086       .  S
C3629      H3631   1.087       .  S
C3629      C3630   1.338       .  D
C3630      H3632   1.088       .  S
C3633      H3635   1.087       .  S
C3633      C3634   1.354       .  D
C3634      H3636   1.086       .  S
C3637      H3639   1.087       .  S
C3637      C3638   1.351       .  D
C3638      H3640   1.086       .  S
C3641      H3643   1.086       .  S
C3641      C3642   1.343       .  D
C3642      H3644   1.087       .  S
C3645      H3647   1.087       .  S
C3645      C3646   1.354       .  D
C3646      H3648   1.086       .  S
C3649      H3651   1.086       .  S
C3649      C3650   1.353       .  D
C3650      H3652   1.087       .  S
C3653      H3655   1.086       .  S
C3653      C3654   1.357       .  D
C3654      H3656   1.087       .  S
