geometry optimzed in LAMMPS
_audit_creation_date              2020-12-01 
_audit_creation_method            'lammps2cif' 
_symmetry_space_group_name_H-M    'P1' 
_symmetry_Int_Tables_number       1 
_symmetry_cell_setting            triclinic 
loop_ 
_symmetry_equiv_pos_as_xyz 
  x,y,z 
_cell_length_a                    41.53705555 
_cell_length_b                    34.187178448759624 
_cell_length_c                    32.96057852458972 
_cell_angle_alpha                 89.674607749063 
_cell_angle_beta                  89.64106797067235 
_cell_angle_gamma                 90.8177012845788 
loop_ 
_atom_site_label 
_atom_site_type_symbol 
_atom_site_fract_x 
_atom_site_fract_y 
_atom_site_fract_z 
_atom_site_charge 
O1          O  0.44920264  0.43297127  0.42857649    -0.74000
O2          O  0.41595496  0.47414691  0.46290865    -0.52900
C3          C  0.42125339  0.44680457  0.43736638     0.79700
O4          O  0.04948982  0.40254654  0.09411466    -0.58600
O5          O  0.09118691  0.43534538  0.06304300    -0.51700
C6          C  0.07969674  0.40988914  0.08819384     0.71700
O7          O  0.44140072  0.41306369  0.06574550    -0.73200
O8          O  0.40590807  0.44518296  0.02517542    -0.53700
C9          C  0.41279412  0.41960399  0.05246629     0.77700
O10         O  0.05628175  0.42910672  0.41925590    -0.58300
O11         O  0.09500180  0.45729523  0.45896915    -0.51400
C12         C  0.08570411  0.43482128  0.42970653     0.74300
Zr13       Zr  0.00202092  0.44824736  0.43658586     2.54700
O14         O  0.00363319  0.37738832  0.43003477    -0.78900
O15         O  0.00182126  0.45557245  0.36300432    -0.92300
Zr16       Zr  0.99808086  0.42388248  0.06601436     2.64700
O17         O  0.49915238  0.36489524  0.04728890    -0.97300
O18         O  0.98913742  0.42195101  0.13904146    -0.79300
O19         O  0.47133373  0.43677083  0.98956723    -0.82700
O20         O  0.03542551  0.42334880  0.01098697    -2.17400
O21         O  0.06574809  0.07562163  0.42276017    -0.66100
O22         O  0.10151157  0.03855051  0.45815938    -0.50600
C23         C  0.09451739  0.06531080  0.43239653     0.72700
O24         O  0.44759146  0.06287388  0.06917466    -0.59000
O25         O  0.41137878  0.03173459  0.02785169    -0.51000
C26         C  0.41860202  0.05520580  0.05668461     0.74500
O27         O  0.05144854  0.07653445  0.08403499    -0.70400
O28         O  0.09404476  0.04787399  0.05202937    -0.49100
C29         C  0.08202029  0.07215622  0.07765379     0.75900
O30         O  0.45994201  0.08797035  0.41586972    -0.65700
O31         O  0.41764267  0.05350702  0.44329470    -0.52900
C32         C  0.42963385  0.08024363  0.42000240     0.74300
Zr33       Zr  0.51129064  0.06545620  0.44295893     2.77500
O34         O  0.51357368  0.13619644  0.45122123    -0.96500
O35         O  0.51866056  0.07137136  0.36984243    -0.77300
Zr36       Zr  0.50337802  0.04174062  0.05384477     2.70100
O37         O  0.99237184  0.12108751  0.06210545    -0.78500
O38         O  0.50109156  0.03476510  0.12733670    -0.97600
Zr39       Zr  0.45072978  0.50845562  0.50932925     2.21500
Zr40       Zr  0.06947090  0.00172764  0.00468899     2.11100
O41         O  0.03742658  0.05353284  0.50149919    -2.46300
O42         O  0.47435126  0.06426259  0.49780623    -0.78300
O43         O  0.03803627  0.50272757  0.44146425    -0.70500
O44         O  0.46767237  0.98693926  0.04717802    -2.31500
O45         O  0.48080900  0.50816632  0.44738168    -2.27700
O46         O  0.03385787  0.99618797  0.06181896    -0.72300
H47         H  0.04853761  0.40025055  0.01203657     0.79700
H48         H  0.45212369  0.98667061  0.06908045     0.80800
H49         H  0.05081768  0.07677083  0.50348302     0.83000
H50         H  0.46696967  0.51082826  0.42412341     0.80600
H51         H  0.47372016  0.45245956  0.13314653     0.43700
H52         H  0.98638287  0.06757952  0.14363473     0.42700
H53         H  0.49906907  0.12116707  0.02813999     0.42300
H54         H  0.01570348  0.13829059  0.42591862     0.40300
H55         H  0.01711341  0.03889336  0.35523825     0.43400
H56         H  0.52015664  0.47648337  0.36467561     0.38200
H57         H  0.51007587  0.36606923  0.46483233     0.44300
H58         H  0.98057500  0.34795677  0.03767165     0.40700
H59         H  0.52916316  0.14554824  0.43036027     0.45600
H60         H  0.00204735  0.42841514  0.35274078     0.44400
H61         H  0.51954041  0.35989693  0.03262661     0.44500
H62         H  0.48159197  0.01849506  0.13263519     0.44800
C63         C  0.15133051  0.14228958  0.38307908     0.87800
C64         C  0.15164315  0.13086846  0.33808571    -0.52500
C65         C  0.17614138  0.14812034  0.31648750     0.10700
C66         C  0.19770025  0.17522356  0.34163296     0.21600
C67         C  0.18523140  0.13224671  0.39873722    -0.53200
C68         C  0.20964924  0.14962462  0.37689603     0.10800
C69         C  0.15037576  0.18722474  0.38298483    -0.52700
C70         C  0.17488127  0.20458065  0.36113780     0.11400
H71         H  0.13434084  0.11053346  0.32504823     0.15900
H72         H  0.21683207  0.18930104  0.32278912     0.01600
H73         H  0.18948168  0.11274458  0.42420322     0.16200
H74         H  0.13195942  0.20324608  0.39900667     0.16000
C75         C  0.16029918  0.38656627  0.37933518     0.87800
C76         C  0.15169576  0.34368623  0.38892475    -0.52500
C77         C  0.16704543  0.31729643  0.36526670     0.10700
C78         C  0.19001404  0.33634876  0.33376520     0.21600
C79         C  0.19726289  0.38901779  0.38282141    -0.53200
C80         C  0.21283598  0.36250016  0.35870506     0.10800
C81         C  0.15378284  0.39137265  0.33357402    -0.52700
C82         C  0.16929292  0.36507013  0.30944014     0.11400
H83         H  0.13472275  0.33494244  0.41263275     0.15900
H84         H  0.20295735  0.31524476  0.31471604     0.01600
H85         H  0.20955581  0.40963686  0.40245662     0.16200
H86         H  0.13824851  0.41382075  0.32140188     0.16000
C87         C  0.15800490  0.36388389  0.12704864     0.87800
C88         C  0.15621996  0.36683909  0.17335267    -0.52500
C89         C  0.17685693  0.34268149  0.19331905     0.10700
C90         C  0.19729831  0.31748120  0.16426129     0.21600
C91         C  0.19350011  0.37182962  0.11636461    -0.53200
C92         C  0.21451575  0.34778434  0.13569323     0.10800
C93         C  0.15230260  0.32066863  0.11744116    -0.52700
C94         C  0.17239239  0.29590059  0.13695805     0.11400
H95         H  0.13966382  0.38633625  0.18834271     0.15900
H96         H  0.21367092  0.29789406  0.18076323     0.01600
H97         H  0.20139413  0.39501638  0.09576923     0.16200
H98         H  0.13346056  0.31046072  0.09718530     0.16000
C99         C  0.15853276  0.11825919  0.12994539     0.87800
C100        C  0.15752774  0.16329379  0.12509358    -0.52500
C101        C  0.17657021  0.18304389  0.15242675     0.10700
C102        C  0.19429216  0.15604666  0.18159876     0.21600
C103        C  0.19490679  0.10852293  0.12711890    -0.53200
C104        C  0.21350240  0.12848258  0.15461401     0.10800
C105        C  0.14939240  0.11056430  0.17466392    -0.52700
C106        C  0.16797391  0.13042392  0.20174661     0.11400
H107        H  0.14295852  0.17764030  0.10241401     0.15900
H108        H  0.20969982  0.17286511  0.20274130     0.01600
H109        H  0.20472238  0.08747004  0.10603546     0.16200
H110        H  0.12947088  0.09159468  0.18405469     0.16000
C111        C  0.35496344  0.13296557  0.37820430     0.87800
C112        C  0.36609432  0.17559512  0.38382338    -0.52500
C113        C  0.34887022  0.20198025  0.36227627     0.10700
C114        C  0.32209520  0.18316643  0.33664476     0.21600
C115        C  0.31874300  0.13275091  0.38914254    -0.53200
C116        C  0.30165521  0.15952634  0.36721240     0.10800
C117        C  0.35605445  0.12605960  0.33227128    -0.52700
C118        C  0.33862441  0.15235076  0.31036870     0.11400
H119        H  0.38560474  0.18420415  0.40384760     0.15900
H120        H  0.30796748  0.20396383  0.31825512     0.01600
H121        H  0.30800551  0.11394923  0.41231303     0.16200
H122        H  0.36971482  0.10255832  0.31892835     0.16000
C123        C  0.36439465  0.11760572  0.12816920     0.87800
C124        C  0.36672696  0.10838708  0.17354331    -0.52500
C125        C  0.34411908  0.12605613  0.19681811     0.10700
C126        C  0.32030824  0.15067172  0.17226507     0.21600
C127        C  0.32945699  0.10551408  0.11660489    -0.53200
C128        C  0.30623476  0.12267583  0.13995239     0.10800
C129        C  0.36479383  0.16245580  0.12534666    -0.52700
C130        C  0.34170294  0.17984337  0.14852841     0.11400
H131        H  0.38568607  0.09068776  0.18643183     0.15900
H132        H  0.30213193  0.16559239  0.19105909     0.01600
H133        H  0.32310245  0.08585219  0.09219481     0.16200
H134        H  0.38197983  0.17855658  0.10654236     0.16000
C135        C  0.36172993  0.36216258  0.13249557     0.87800
C136        C  0.37125703  0.31970288  0.12431375    -0.52500
C137        C  0.35348398  0.29252803  0.14544243     0.10700
C138        C  0.32805376  0.31065241  0.17363719     0.21600
C139        C  0.32505147  0.36348127  0.12388560    -0.53200
C140        C  0.30744424  0.33594663  0.14574357     0.10800
C141        C  0.36419421  0.36665782  0.17871706    -0.52700
C142        C  0.34616828  0.34011058  0.20033219     0.11400
H143        H  0.39026141  0.31182937  0.10321069     0.15900
H144        H  0.31374796  0.28939450  0.19203411     0.01600
H145        H  0.31444406  0.38395675  0.10275886     0.16200
H146        H  0.37874152  0.38937467  0.19272283     0.16000
C147        C  0.36327692  0.37528252  0.38388630     0.87800
C148        C  0.36858296  0.38553270  0.33897028    -0.52500
C149        C  0.34676867  0.36845833  0.31374243     0.10700
C150        C  0.32072184  0.34398223  0.33603659     0.21600
C151        C  0.32860092  0.38765949  0.39347097    -0.53200
C152        C  0.30601610  0.37125374  0.36846381     0.09600
C153        C  0.36215636  0.33037717  0.38547881    -0.52700
C154        C  0.33982534  0.31398661  0.36022261     0.11400
H155        H  0.38897739  0.40286062  0.32791845     0.15900
H156        H  0.30331426  0.33036177  0.31504014     0.01600
H157        H  0.32245552  0.40713769  0.41816824     0.16200
H158        H  0.37745689  0.31345180  0.40529116     0.16000
C159        C  0.34211042  0.34004364  0.24515200    -0.15200
C160        C  0.35089915  0.37009800  0.26910074    -0.30300
H161        H  0.33091694  0.31415103  0.25857047     0.13900
H162        H  0.36292136  0.39575688  0.25641932     0.14400
C163        C  0.33694983  0.22262192  0.15230745    -0.15200
C164        C  0.35862599  0.24992938  0.14014022    -0.30300
H165        H  0.31462765  0.23133751  0.16648834     0.13900
H166        H  0.38078157  0.24122262  0.12539584     0.14400
C167        C  0.33519803  0.15252278  0.26554588    -0.15200
C168        C  0.34525082  0.12343234  0.24158175    -0.30300
H169        H  0.32450495  0.17822471  0.25204589     0.13900
H170        H  0.35677417  0.09805335  0.25452298     0.14400
C171        C  0.33379944  0.27153890  0.35554723    -0.15200
C172        C  0.35537348  0.24444615  0.36589761    -0.30300
H173        H  0.31082399  0.26296563  0.34276966     0.13900
H174        H  0.37834509  0.25331826  0.37862915     0.14400
C175        C  0.24882667  0.12537056  0.16108097    -0.15200
C176        C  0.27090610  0.11679566  0.13253951    -0.30300
H177        H  0.25689346  0.13393441  0.19095696     0.13900
H178        H  0.26310682  0.10721532  0.10278033     0.14400
C179        C  0.16863427  0.25283344  0.13104493    -0.15200
C180        C  0.18089892  0.22629341  0.15644893    -0.30300
H181        H  0.15407602  0.24301316  0.10575337     0.13900
H182        H  0.19475021  0.23636370  0.18221432     0.14400
C183        C  0.25011942  0.35391735  0.13063723    -0.15200
C184        C  0.27186737  0.32910960  0.14558385    -0.30300
H185        H  0.25846315  0.38032881  0.11518340     0.13900
H186        H  0.26351137  0.30262871  0.16066748     0.14400
C187        C  0.16627533  0.36627270  0.26426240    -0.15200
C188        C  0.17989430  0.34045561  0.23851178    -0.30300
H189        H  0.15238672  0.39016837  0.25213443     0.13900
H190        H  0.19428765  0.31686188  0.25020098     0.14400
C191        C  0.24817151  0.35722170  0.35499759    -0.15200
C192        C  0.27090209  0.37862449  0.37395250    -0.30300
H193        H  0.25520787  0.33352591  0.33547749     0.13900
H194        H  0.26387182  0.40157368  0.39465306     0.14400
C195        C  0.18301525  0.14217444  0.27297796    -0.15200
C196        C  0.16121049  0.12955168  0.24597707    -0.30300
H197        H  0.20702179  0.15058331  0.26307009     0.13900
H198        H  0.13738644  0.12015871  0.25601314     0.14400
C199        C  0.26691223  0.16763635  0.37094192    -0.15200
C200        C  0.24431560  0.14204504  0.38414386    -0.30300
H201        H  0.25966341  0.19571266  0.35892484     0.13900
H202        H  0.25112648  0.11437206  0.39766272     0.14400
C203        C  0.16085883  0.27473808  0.37065180    -0.15200
C204        C  0.18043684  0.24731737  0.35578396    -0.30300
H205        H  0.13980132  0.26621197  0.38833421     0.13900
H206        H  0.20203671  0.25599029  0.33930614     0.14400
C207        C  0.12192708  0.08454842  0.41171052    -0.15200
C208        C  0.12368478  0.12338010  0.40621099    -0.30300
H209        H  0.14184727  0.06646131  0.40209342     0.13900
H210        H  0.10458625  0.14160135  0.41803029     0.14400
C211        C  0.13484841  0.39022558  0.10555555    -0.15200
C212        C  0.10282083  0.38663329  0.11145034    -0.30300
H213        H  0.14448172  0.41172163  0.08413579     0.13900
H214        H  0.09344318  0.36493208  0.13284281     0.14400
C215        C  0.39050111  0.07322446  0.07658079    -0.15200
C216        C  0.39283866  0.10035487  0.10557536    -0.30300
H217        H  0.36707752  0.06281672  0.06690356     0.13900
H218        H  0.41665346  0.11031958  0.11477999     0.14400
C219        C  0.10438019  0.09716413  0.10215955    -0.15200
C220        C  0.13696400  0.09519419  0.10077499    -0.30300
H221        H  0.09348171  0.11722373  0.12351647     0.13900
H222        H  0.14823692  0.07498334  0.07992687     0.14400
C223        C  0.39314500  0.43081859  0.41586752    -0.15200
C224        C  0.38922456  0.39223544  0.41065912    -0.30300
H225        H  0.37537230  0.45093991  0.40423095     0.13900
H226        H  0.40624979  0.37246684  0.42462934     0.14400
C227        C  0.37538418  0.10473272  0.40190169    -0.15200
C228        C  0.40753523  0.10434938  0.39600552    -0.30300
H229        H  0.36409322  0.08587362  0.42466623     0.13900
H230        H  0.41828736  0.12409219  0.37359122     0.14400
C231        C  0.10888581  0.41240690  0.40505816    -0.15200
C232        C  0.14127275  0.41444080  0.40601182    -0.30300
H233        H  0.09798923  0.39189249  0.38386811     0.13900
H234        H  0.15354098  0.43458658  0.42626138     0.14400
C235        C  0.38607594  0.39581416  0.07032737    -0.15200
C236        C  0.38364569  0.39163532  0.11081202    -0.30300
H237        H  0.36905984  0.38108675  0.05051446     0.13900
H238        H  0.40019582  0.40867830  0.12937158     0.14400
O239        O  0.45570554  0.41776528  0.91069762    -0.74000
O240        O  0.41372569  0.45070290  0.93900442    -0.52900
C241        C  0.42549084  0.42486714  0.91513179     0.79700
O242        O  0.04381589  0.41944712  0.58205811    -0.58600
O243        O  0.08670603  0.45038015  0.55157651    -0.51700
C244        C  0.07417031  0.42456139  0.57598947     0.71700
O245        O  0.45378240  0.42379278  0.58044855    -0.73200
O246        O  0.41706316  0.46264306  0.54933137    -0.53700
C247        C  0.42489097  0.43391617  0.57268461     0.77700
O248        O  0.06655028  0.41188739  0.92910654    -0.58300
O249        O  0.10097627  0.44254330  0.97262084    -0.51400
C250        C  0.09501183  0.42021956  0.94226958     0.74300
Zr251      Zr  0.01079905  0.42773588  0.94667859     2.54700
O252        O  0.01177865  0.35663504  0.95064017    -0.78900
O253        O  0.01351039  0.42800268  0.87283498    -0.92300
Zr254      Zr  0.99387365  0.44577026  0.55587631     2.64700
O255        O  0.50054617  0.36986062  0.56107871    -0.97300
O256        O  0.98750444  0.44667837  0.62932057    -0.79300
O257        O  0.47604939  0.44662458  0.50500964    -0.82700
O258        O  0.02945535  0.44361833  0.49956474    -2.17400
O259        O  0.05769280  0.07680978  0.92053170    -0.66100
O260        O  0.09707339  0.04748219  0.95758947    -0.50600
C261        C  0.08711969  0.07103621  0.92957466     0.72700
O262        O  0.44299514  0.08028986  0.57094713    -0.59000
O263        O  0.40883640  0.05092976  0.52604282    -0.51000
C264        C  0.41502256  0.07469620  0.55494048     0.74500
O265        O  0.05359935  0.07176963  0.58147024    -0.70400
O266        O  0.09533536  0.04111263  0.54974725    -0.49100
C267        C  0.08376684  0.06607897  0.57526077     0.75900
O268        O  0.46259237  0.07867528  0.91793168    -0.65700
O269        O  0.41899179  0.04429973  0.94217461    -0.52900
C270        C  0.43217094  0.07325109  0.92269061     0.74300
Zr271      Zr  0.51240061  0.04660031  0.93458392     2.77500
O272        O  0.52111487  0.11717230  0.93807834    -0.96500
O273        O  0.51309771  0.04960511  0.86076506    -0.77300
Zr274      Zr  0.49851211  0.05809022  0.56257159     2.70100
O275        O  0.00013287  0.12029557  0.56308025    -0.78500
O276        O  0.49015275  0.04637650  0.63484306    -0.97600
Zr277      Zr  0.43846642  0.49367321  0.98832291     2.21500
Zr278      Zr  0.06960607  0.99572290  0.50103478     2.11100
O279        O  0.03401822  0.05655715  0.00387494    -2.46300
O280        O  0.47664604  0.04696786  0.99060260    -0.78300
O281        O  0.04343351  0.48457303  0.95202308    -0.70500
O282        O  0.46496231  0.00195671  0.55435829    -2.31500
O283        O  0.47426213  0.49760526  0.93143592    -2.27700
O284        O  0.03440913  0.99300194  0.55876359    -0.72300
H285        H  0.04161022  0.41976072  0.50019468     0.79700
H286        H  0.44842818  0.00106073  0.57511902     0.80800
H287        H  0.04628688  0.08067405  0.00536168     0.83000
H288        H  0.46245880  0.49840117  0.90632421     0.80600
H289        H  0.50463201  0.41372081  0.64509000     0.43700
H290        H  0.01704178  0.02651755  0.63842959     0.42700
H291        H  0.49084417  0.13258062  0.59963889     0.42300
H292        H  0.02145430  0.13238603  0.96934788     0.40300
H293        H  0.00003324  0.03343369  0.85879518     0.43400
H294        H  0.48965009  0.45818112  0.85232374     0.38200
H295        H  0.50880969  0.36177367  0.95818351     0.44300
H296        H  0.00700214  0.36671270  0.53420981     0.40700
H297        H  0.53448616  0.12383562  0.91397514     0.45600
H298        H  0.03288395  0.44399522  0.86605136     0.44400
H299        H  0.50749972  0.36029328  0.58799697     0.44500
H300        H  0.49518124  0.07180422  0.64773935     0.44800
C301        C  0.16266023  0.12107837  0.88352921     0.87800
C302        C  0.16048229  0.11536703  0.83718885    -0.52500
C303        C  0.17993145  0.14065350  0.81545239     0.10700
C304        C  0.19967198  0.16880102  0.84207403     0.21600
C305        C  0.19820589  0.11722355  0.89344356    -0.53200
C306        C  0.21779634  0.14183770  0.87186175     0.10800
C307        C  0.15537062  0.16453270  0.89035689    -0.52700
C308        C  0.17432812  0.18976876  0.86817655     0.11400
H309        H  0.14524956  0.09320315  0.82331154     0.15900
H310        H  0.21534166  0.18913610  0.82443887     0.01600
H311        H  0.20726318  0.09640862  0.91549861     0.16200
H312        H  0.13633800  0.17440786  0.91043372     0.16000
C313        C  0.14784494  0.36249743  0.86465983     0.87800
C314        C  0.14988705  0.31780408  0.86788552    -0.52500
C315        C  0.17261371  0.30150197  0.84311401     0.10700
C316        C  0.19086001  0.33203553  0.81664649     0.21600
C317        C  0.18244996  0.37753499  0.87248977    -0.53200
C318        C  0.20516268  0.36144220  0.84773173     0.10800
C319        C  0.14230329  0.37076094  0.81963044    -0.52700
C320        C  0.16441604  0.35495837  0.79406541     0.11400
H321        H  0.13412092  0.30098063  0.88791342     0.15900
H322        H  0.20869467  0.31883296  0.79603718     0.01600
H323        H  0.18902686  0.39850769  0.89561303     0.16200
H324        H  0.12204352  0.38756840  0.80877260     0.16000
C325        C  0.14915785  0.36680097  0.61160997     0.87800
C326        C  0.15094620  0.37073682  0.65817297    -0.52500
C327        C  0.17206107  0.34543692  0.67625336     0.10700
C328        C  0.18949561  0.31927728  0.64560001     0.21600
C329        C  0.18381880  0.37233709  0.59678906    -0.53200
C330        C  0.20513904  0.34817962  0.61460013     0.10800
C331        C  0.14126852  0.32323064  0.60417511    -0.52700
C332        C  0.16209070  0.29800374  0.62248319     0.11400
H333        H  0.13656388  0.39164579  0.67460584     0.15900
H334        H  0.20677734  0.29915490  0.65983146     0.01600
H335        H  0.19122582  0.39466232  0.57490149     0.16200
H336        H  0.12067736  0.31328638  0.58669752     0.16000
C337        C  0.15633381  0.11903227  0.62786050     0.87800
C338        C  0.15101629  0.16342602  0.62178041    -0.52500
C339        C  0.16782753  0.18643962  0.64852949     0.10700
C340        C  0.18785404  0.16276165  0.67878994     0.21600
C341        C  0.19318586  0.11437285  0.62541720    -0.53200
C342        C  0.20959623  0.13733693  0.65248371     0.10800
C343        C  0.14784107  0.11089616  0.67280650    -0.52700
C344        C  0.16449425  0.13353769  0.69964688     0.11400
H345        H  0.13580189  0.17511518  0.59813703     0.15900
H346        H  0.20147688  0.18201410  0.69967352     0.01600
H347        H  0.20486837  0.09433294  0.60481163     0.16200
H348        H  0.13067716  0.08841389  0.68251804     0.16000
C349        C  0.36178126  0.13220160  0.87855370     0.87800
C350        C  0.36927227  0.17576497  0.88608435    -0.52500
C351        C  0.35360020  0.20051782  0.86041412     0.10700
C352        C  0.33165986  0.17906164  0.82981191     0.21600
C353        C  0.32498039  0.12864262  0.88174138    -0.53200
C354        C  0.30923814  0.15346859  0.85601391     0.10800
C355        C  0.36928115  0.12573830  0.83350647    -0.52700
C356        C  0.35340434  0.14993459  0.80788005     0.11400
H357        H  0.38521085  0.18604258  0.90987566     0.15900
H358        H  0.31804294  0.19834301  0.80943433     0.01600
H359        H  0.31292688  0.10769752  0.90167838     0.16200
H360        H  0.38525313  0.10306776  0.82274937     0.16000
C361        C  0.35967051  0.13074879  0.62763221     0.87800
C362        C  0.36237895  0.13279041  0.67384812    -0.52500
C363        C  0.33869703  0.15374988  0.69215163     0.10700
C364        C  0.31445497  0.17054532  0.66205372     0.21600
C365        C  0.32558752  0.11416395  0.61978959    -0.53200
C366        C  0.30173704  0.13512041  0.63783343     0.10800
C367        C  0.35881146  0.17365993  0.61346028    -0.52700
C368        C  0.33490648  0.19441773  0.63166260     0.11400
H369        H  0.38174823  0.11878360  0.68994741     0.15900
H370        H  0.29580450  0.18854378  0.67682633     0.01600
H371        H  0.32076636  0.08853328  0.60136119     0.16200
H372        H  0.37552792  0.18618075  0.59135409     0.16000
C373        C  0.34936092  0.37623524  0.60966328     0.87800
C374        C  0.35961767  0.33443777  0.59811806    -0.52500
C375        C  0.34385502  0.30563783  0.61936570     0.10700
C376        C  0.31976654  0.32127777  0.65056155     0.21600
C377        C  0.31246052  0.37618798  0.60426799    -0.53200
C378        C  0.29713164  0.34717273  0.62648122     0.10800
C379        C  0.35416398  0.37870039  0.65593806    -0.52700
C380        C  0.33880777  0.34951109  0.67703676     0.11400
H381        H  0.37786979  0.32830911  0.57537229     0.15900
H382        H  0.30704271  0.29856646  0.66898374     0.01600
H383        H  0.29988247  0.39794203  0.58654111     0.16200
H384        H  0.36880408  0.40120672  0.67021230     0.16000
C385        C  0.35131035  0.37749830  0.86371213     0.87800
C386        C  0.35829180  0.38865193  0.81930906    -0.52500
C387        C  0.34270099  0.36576136  0.79202561     0.10700
C388        C  0.32093189  0.33411881  0.81173248     0.21600
C389        C  0.31422666  0.37946292  0.86781389    -0.53200
C390        C  0.29839614  0.35613814  0.84029296     0.09600
C391        C  0.35887865  0.33356429  0.86721524    -0.52700
C392        C  0.34293155  0.31095476  0.83968460     0.11400
H393        H  0.37447213  0.41244379  0.81026473     0.15900
H394        H  0.30744637  0.31536937  0.79021688     0.01600
H395        H  0.30202451  0.39643566  0.89082020     0.16200
H396        H  0.37568543  0.32190990  0.88910024     0.16000
C397        C  0.33891783  0.34396544  0.72137766    -0.15200
C398        C  0.34644100  0.37211497  0.74786686    -0.30300
H399        H  0.33112787  0.31537515  0.73214967     0.13900
H400        H  0.35510595  0.40050595  0.73731209     0.14400
C401        C  0.32831374  0.23632495  0.62531740    -0.15200
C402        C  0.35058601  0.26338877  0.61460859    -0.30300
H403        H  0.30428654  0.24539983  0.63367773     0.13900
H404        H  0.37446796  0.25476796  0.60492877     0.14400
C405        C  0.35666053  0.14549121  0.76349525    -0.15200
C406        C  0.33605228  0.16061282  0.73649337    -0.30300
H407        H  0.37616167  0.12721360  0.75344544     0.13900
H408        H  0.31588566  0.17778348  0.74671971     0.14400
C409        C  0.34539197  0.26805294  0.83536239    -0.15200
C410        C  0.35595027  0.24377188  0.86444329    -0.30300
H411        H  0.33659199  0.25643579  0.80700974     0.13900
H412        H  0.36541566  0.25554113  0.89252535     0.14400
C413        C  0.24486147  0.13901559  0.65850680    -0.15200
C414        C  0.26697671  0.12592456  0.63220919    -0.30300
H415        H  0.25266781  0.15362040  0.68588829     0.13900
H416        H  0.25968358  0.10976772  0.60547801     0.14400
C417        C  0.15763971  0.25443616  0.62054074    -0.15200
C418        C  0.16954733  0.23024617  0.64908411    -0.30300
H419        H  0.14381003  0.24245568  0.59560441     0.13900
H420        H  0.18215385  0.24292884  0.67463784     0.14400
C421        C  0.24000309  0.35310091  0.60592944    -0.15200
C422        C  0.26212565  0.34170887  0.63243674    -0.30300
H423        H  0.24744560  0.36829635  0.57831668     0.13900
H424        H  0.25468528  0.32711471  0.66029028     0.14400
C425        C  0.16108812  0.36068061  0.74932466    -0.15200
C426        C  0.17791214  0.34142588  0.72089368    -0.30300
H427        H  0.14262167  0.38075481  0.73979317     0.13900
H428        H  0.19580025  0.32048204  0.73018874     0.14400
C429        C  0.24007166  0.37145154  0.85235225    -0.15200
C430        C  0.26317917  0.34831815  0.83777234    -0.30300
H431        H  0.24670916  0.39776761  0.86878408     0.13900
H432        H  0.25638638  0.32171070  0.82216605     0.14400
C433        C  0.18315508  0.14214203  0.77058230    -0.15200
C434        C  0.16091532  0.12851391  0.74444412    -0.30300
H435        H  0.20474815  0.15660417  0.75921248     0.13900
H436        H  0.13955549  0.11335965  0.75587500     0.14400
C437        C  0.27399597  0.15570132  0.85096818    -0.15200
C438        C  0.25295271  0.14057253  0.87776018    -0.30300
H439        H  0.26553414  0.17049462  0.82400377     0.13900
H440        H  0.26152761  0.12557865  0.90460701     0.14400
C441        C  0.17958974  0.25868012  0.84139703    -0.15200
C442        C  0.16920423  0.23280934  0.86990906    -0.30300
H443        H  0.19365799  0.24863059  0.81578660     0.13900
H444        H  0.15521805  0.24302052  0.89549760     0.14400
C445        C  0.10987742  0.09436671  0.90484261    -0.15200
C446        C  0.14177235  0.09356384  0.90855011    -0.30300
H447        H  0.09965191  0.11420263  0.88258636     0.13900
H448        H  0.15263379  0.07402035  0.93051456     0.14400
C449        C  0.12717602  0.39560878  0.59071155    -0.15200
C450        C  0.09552832  0.39769222  0.59846631    -0.30300
H451        H  0.13765380  0.41525678  0.56802485     0.13900
H452        H  0.08476217  0.37785452  0.62075773     0.14400
C453        C  0.38785350  0.09721159  0.57072996    -0.15200
C454        C  0.38684374  0.10776309  0.60968215    -0.30300
H455        H  0.36783032  0.10364143  0.55082747     0.13900
H456        H  0.40625035  0.09885030  0.62956336     0.14400
C457        C  0.10522977  0.09142021  0.60009483    -0.15200
C458        C  0.13760431  0.09267449  0.59881134    -0.30300
H459        H  0.09325712  0.11064810  0.62141617     0.13900
H460        H  0.15048622  0.07387068  0.57801362     0.14400
C461        C  0.40341625  0.40132860  0.89008005    -0.15200
C462        C  0.37100190  0.40221884  0.89255574    -0.30300
H463        H  0.41449670  0.38208525  0.86801109     0.13900
H464        H  0.35905774  0.42076725  0.91446495     0.14400
C465        C  0.37982629  0.10400716  0.90533192    -0.15200
C466        C  0.41206096  0.10293086  0.90304426    -0.30300
H467        H  0.36661308  0.08307551  0.92421565     0.13900
H468        H  0.42454501  0.12451121  0.88407128     0.14400
C469        C  0.12328029  0.40394991  0.92085369    -0.15200
C470        C  0.12034294  0.37833167  0.89016614    -0.30300
H471        H  0.14677106  0.41407690  0.93057568     0.13900
H472        H  0.09638162  0.36805040  0.88195476     0.14400
C473        C  0.40062420  0.40880483  0.59304863    -0.15200
C474        C  0.36865604  0.40764156  0.58705964    -0.30300
H475        H  0.41055197  0.38740511  0.61394802     0.13900
H476        H  0.35717267  0.42794620  0.56645263     0.14400
O477        O  0.45393839  0.92889677  0.41152373    -0.74000
O478        O  0.41558032  0.96918716  0.43740149    -0.52900
C479        C  0.42473589  0.94101672  0.41493694     0.79700
O480        O  0.05755415  0.92071618  0.08299573    -0.58600
O481        O  0.09739571  0.95677445  0.05176312    -0.51700
C482        C  0.08717476  0.93012617  0.07712233     0.71700
O483        O  0.43749405  0.91018607  0.05726986    -0.73200
O484        O  0.40427849  0.94840042  0.01994246    -0.53700
C485        C  0.40937152  0.92073545  0.04571189     0.77700
O486        O  0.06386098  0.92612141  0.41428927    -0.58300
O487        O  0.10184629  0.95642651  0.45338775    -0.51400
C488        C  0.09310912  0.93353104  0.42420463     0.74300
Zr489      Zr  0.00924327  0.94080003  0.43302682     2.54700
O490        O  0.00886124  0.86961941  0.43562150    -0.78900
O491        O  0.01374281  0.94281262  0.35928335    -0.92300
Zr492      Zr  0.00561909  0.93573319  0.05535052     2.64700
O493        O  0.48927546  0.85541996  0.04465936    -0.97300
O494        O  0.00029749  0.93376401  0.12894227    -0.79300
O495        O  0.46857581  0.93057602  0.98356092    -0.82700
O496        O  0.04154168  0.94055058  0.99952396    -2.17400
O497        O  0.06834650  0.57911302  0.42623682    -0.66100
O498        O  0.10062183  0.53927002  0.46363225    -0.50600
C499        C  0.09610783  0.56673720  0.43752713     0.72700
O500        O  0.43717539  0.56574841  0.07403666    -0.59000
O501        O  0.40386764  0.53346235  0.02999669    -0.51000
C502        C  0.40907884  0.55698589  0.05956989     0.74500
O503        O  0.05813901  0.56097847  0.09302982    -0.70400
O504        O  0.09610158  0.52100001  0.06573364    -0.49100
C505        C  0.08749023  0.54939354  0.08846651     0.75900
O506        O  0.46481222  0.58516156  0.42984388    -0.65700
O507        O  0.42391805  0.55562658  0.46579030    -0.52900
C508        C  0.43477144  0.57951408  0.43843253     0.74300
Zr509      Zr  0.51760213  0.56162880  0.45052723     2.77500
O510        O  0.52222342  0.63241500  0.45720731    -0.96500
O511        O  0.51938915  0.56461687  0.37672127    -0.77300
Zr512      Zr  0.49435038  0.55104887  0.06006858     2.70100
O513        O  0.00319754  0.61164167  0.07179957    -0.78500
O514        O  0.49000249  0.54175708  0.13316427    -0.97600
Zr515      Zr  0.44219079  0.00702021  0.48843984     2.21500
Zr516      Zr  0.06754022  0.48126928  0.01700714     2.11100
O517        O  0.03636601  0.56007644  0.50321092    -2.46300
O518        O  0.48708706  0.56321438  0.51155313    -0.78300
O519        O  0.04111897  0.99866635  0.43820665    -0.70500
O520        O  0.46416738  0.49190804  0.05306663    -2.31500
O521        O  0.47871997  0.00906838  0.43236345    -2.27700
O522        O  0.03164068  0.48046549  0.07377069    -0.72300
H523        H  0.05630784  0.91900699  0.00020198     0.79700
H524        H  0.44835010  0.48980536  0.07456937     0.80800
H525        H  0.05121231  0.58197462  0.50520092     0.83000
H526        H  0.46747149  0.01102207  0.40685504     0.80600
H527        H  0.50405280  0.94480024  0.13048993     0.43700
H528        H  0.99181817  0.56129339  0.15267410     0.42700
H529        H  0.48180065  0.62970938  0.03703391     0.42300
H530        H  0.01052433  0.64315002  0.41310309     0.40300
H531        H  0.02992084  0.53679143  0.36061828     0.43400
H532        H  0.51393459  0.93208917  0.35085081     0.38200
H533        H  0.49519029  0.86903934  0.45090769     0.44300
H534        H  0.03285653  0.86054931  0.04136237     0.40700
H535        H  0.52394561  0.64230244  0.42897364     0.45600
H536        H  0.00306014  0.91842888  0.34995532     0.44400
H537        H  0.47419190  0.85021219  0.02211515     0.44500
H538        H  0.46924229  0.52767674  0.13734152     0.44800
C539        C  0.15555823  0.64118359  0.38720294     0.87800
C540        C  0.15383526  0.63017759  0.34216910    -0.52500
C541        C  0.17779682  0.64679172  0.31906849     0.10700
C542        C  0.20151397  0.67214564  0.34313845     0.21600
C543        C  0.18955123  0.62950828  0.40084088    -0.53200
C544        C  0.21383765  0.64565955  0.37776500     0.10800
C545        C  0.15614120  0.68632391  0.38715085    -0.52700
C546        C  0.18026276  0.70259705  0.36363772     0.11400
H547        H  0.13491015  0.61163566  0.32982128     0.15900
H548        H  0.22021505  0.68550501  0.32316222     0.01600
H549        H  0.19396041  0.60987858  0.42616025     0.16200
H550        H  0.13880863  0.70338088  0.40395526     0.16000
C551        C  0.16638936  0.88431399  0.37232719     0.87800
C552        C  0.15649665  0.84180047  0.38166786    -0.52500
C553        C  0.17001718  0.81496460  0.35690618     0.10700
C554        C  0.19224536  0.83323155  0.32396837     0.21600
C555        C  0.20354516  0.88455061  0.37351936    -0.53200
C556        C  0.21713349  0.85763109  0.34778133     0.10800
C557        C  0.15834306  0.89044150  0.32724091    -0.52700
C558        C  0.17176519  0.86396983  0.30159539     0.11400
H559        H  0.14043712  0.83356037  0.40654606     0.15900
H560        H  0.20311867  0.81113681  0.30386795     0.01600
H561        H  0.21735003  0.90431318  0.39250685     0.16200
H562        H  0.14341129  0.91416263  0.31652830     0.16000
C563        C  0.16156801  0.87451707  0.11786149     0.87800
C564        C  0.16111074  0.87811322  0.16453907    -0.52500
C565        C  0.17985639  0.85115519  0.18406226     0.10700
C566        C  0.19742936  0.82363489  0.15474109     0.21600
C567        C  0.19711454  0.87753011  0.10608959    -0.53200
C568        C  0.21609650  0.85113498  0.12499848     0.10800
C569        C  0.15190780  0.83155187  0.10959043    -0.52700
C570        C  0.17028641  0.80460933  0.12935475     0.11400
H571        H  0.14723905  0.90014677  0.18007722     0.15900
H572        H  0.21288387  0.80267353  0.17086929     0.01600
H573        H  0.20667230  0.89923527  0.08484339     0.16200
H574        H  0.13177456  0.82327220  0.09043996     0.16000
C575        C  0.14426753  0.62857284  0.13498599     0.87800
C576        C  0.14631753  0.67321190  0.12782339    -0.52500
C577        C  0.16746072  0.69221599  0.15293376     0.10700
C578        C  0.18436427  0.66456753  0.18268205     0.21600
C579        C  0.17953324  0.61452875  0.13070054    -0.53200
C580        C  0.20042628  0.63347837  0.15634291     0.10800
C581        C  0.13613253  0.62396457  0.18035495    -0.52700
C582        C  0.15740703  0.64217832  0.20540747     0.11400
H583        H  0.13194484  0.68805762  0.10528930     0.15900
H584        H  0.20145114  0.68049959  0.20258937     0.01600
H585        H  0.18679761  0.59109818  0.11069827     0.16200
H586        H  0.11567843  0.60690996  0.19168884     0.16000
C587        C  0.35964851  0.62504576  0.38781648     0.87800
C588        C  0.37012735  0.66820728  0.38698174    -0.52500
C589        C  0.35414103  0.69051970  0.35969933     0.10700
C590        C  0.32898151  0.66742515  0.33507633     0.21600
C591        C  0.32281322  0.62587358  0.39526896    -0.53200
C592        C  0.30688389  0.64862953  0.36748081     0.10800
C593        C  0.36336902  0.61110936  0.34394585    -0.52700
C594        C  0.34716705  0.63281151  0.31620291     0.11400
H595        H  0.38829789  0.68031478  0.40710816     0.15900
H596        H  0.31616654  0.68559879  0.31260157     0.01600
H597        H  0.31092123  0.61117398  0.42060954     0.16200
H598        H  0.37751895  0.58586756  0.33559874     0.16000
C599        C  0.34935243  0.60288870  0.13635023     0.87800
C600        C  0.35026776  0.60197278  0.18304069    -0.52500
C601        C  0.32798835  0.62532234  0.20128396     0.10700
C602        C  0.30638316  0.64634231  0.17091373     0.21600
C603        C  0.31429296  0.59129956  0.12545677    -0.53200
C604        C  0.29155754  0.61410844  0.14383677     0.10800
C605        C  0.35245374  0.64649904  0.12518979    -0.52700
C606        C  0.32982617  0.66914530  0.14338127     0.11400
H607        H  0.36779133  0.58509430  0.19960032     0.15900
H608        H  0.28893166  0.66602306  0.18568631     0.01600
H609        H  0.30814327  0.56775928  0.10480810     0.16200
H610        H  0.37097650  0.65810358  0.10491645     0.16000
C611        C  0.36140479  0.84722757  0.11566027     0.87800
C612        C  0.36885626  0.80367758  0.10999482    -0.52500
C613        C  0.34942860  0.77897881  0.13186111     0.10700
C614        C  0.32466113  0.80020987  0.15827558     0.21600
C615        C  0.32514636  0.85077240  0.10582463    -0.53200
C616        C  0.30603616  0.82574863  0.12872114     0.10800
C617        C  0.36332621  0.85385237  0.16166536    -0.52700
C618        C  0.34385612  0.82927959  0.18402912     0.11400
H619        H  0.38777751  0.79328187  0.09003271     0.15900
H620        H  0.30898545  0.78085864  0.17721590     0.01600
H621        H  0.31556123  0.87081098  0.08352368     0.16200
H622        H  0.37881198  0.87618573  0.17473776     0.16000
C623        C  0.36869598  0.86430174  0.36683004     0.87800
C624        C  0.37293105  0.87239266  0.32144290    -0.52500
C625        C  0.35026325  0.85490370  0.29786183     0.10700
C626        C  0.32463680  0.83131909  0.32234507     0.21600
C627        C  0.33441017  0.87742461  0.37719430    -0.53200
C628        C  0.31098529  0.86025217  0.35407863     0.09600
C629        C  0.36740002  0.81965038  0.37076759    -0.52700
C630        C  0.34441976  0.80211704  0.34711444     0.11400
H631        H  0.39303306  0.88929980  0.30889759     0.15900
H632        H  0.30639082  0.81670262  0.30331671     0.01600
H633        H  0.32914738  0.89815371  0.40111526     0.16200
H634        H  0.38318289  0.80384844  0.39093816     0.16000
C635        C  0.33977373  0.82975305  0.22880301    -0.15200
C636        C  0.35322428  0.85668905  0.25306724    -0.30300
H637        H  0.32524754  0.80629115  0.24191164     0.13900
H638        H  0.36859903  0.87957541  0.24033496     0.14400
C639        C  0.32751901  0.71208117  0.13971557    -0.15200
C640        C  0.35232563  0.73589634  0.12975959    -0.30300
H641        H  0.30449242  0.72430154  0.14799869     0.13900
H642        H  0.37525917  0.72390469  0.12049046     0.14400
C643        C  0.34825360  0.62260653  0.27247636    -0.15200
C644        C  0.32595346  0.63381227  0.24555284    -0.30300
H645        H  0.36808054  0.60459214  0.26276773     0.13900
H646        H  0.30578172  0.65108911  0.25572225     0.14400
C647        C  0.33863357  0.75917776  0.34479885    -0.15200
C648        C  0.36039796  0.73317983  0.35749856    -0.30300
H649        H  0.31573188  0.74915493  0.33277911     0.13900
H650        H  0.38331736  0.74333825  0.36929519     0.14400
C651        C  0.23500201  0.62507656  0.16322362    -0.15200
C652        C  0.25610662  0.61080109  0.13608749    -0.30300
H653        H  0.24388918  0.63452774  0.19246087     0.13900
H654        H  0.24775594  0.59953523  0.10722082     0.14400
C655        C  0.16320465  0.76160202  0.12665520    -0.15200
C656        C  0.17420707  0.73534240  0.15379470    -0.30300
H657        H  0.14770559  0.75181884  0.10226957     0.13900
H658        H  0.18892699  0.74550440  0.17871120     0.14400
C659        C  0.25148769  0.85245727  0.11856816    -0.15200
C660        C  0.27046274  0.82273153  0.12853815    -0.30300
H661        H  0.26216180  0.87926293  0.10639976     0.13900
H662        H  0.25989472  0.79589104  0.14059386     0.14400
C663        C  0.16689974  0.86721542  0.25676736    -0.15200
C664        C  0.18399691  0.84731528  0.22900687    -0.30300
H665        H  0.14895322  0.88773239  0.24660527     0.13900
H666        H  0.20210532  0.82702816  0.23907171     0.14400
C667        C  0.25213585  0.85103193  0.34097762    -0.15200
C668        C  0.27618170  0.86875369  0.36132117    -0.30300
H669        H  0.25772260  0.82977737  0.31794567     0.13900
H670        H  0.27043597  0.88973497  0.38474976     0.14400
C671        C  0.18025528  0.64453110  0.27437781    -0.15200
C672        C  0.15467157  0.63922198  0.25016573    -0.30300
H673        H  0.20385675  0.65034576  0.26131676     0.13900
H674        H  0.13108221  0.63293529  0.26318128     0.14400
C675        C  0.27218392  0.65825006  0.36764011    -0.15200
C676        C  0.24844802  0.63643479  0.38454072    -0.30300
H677        H  0.26630528  0.68443962  0.35086301     0.13900
H678        H  0.25427811  0.61068550  0.40231432     0.14400
C679        C  0.16372546  0.77256554  0.36374276    -0.15200
C680        C  0.18567339  0.74516269  0.35575428    -0.30300
H681        H  0.14097628  0.76428826  0.37790504     0.13900
H682        H  0.20857605  0.75391351  0.34223154     0.14400
C683        C  0.12502549  0.58453179  0.41820295    -0.15200
C684        C  0.12793912  0.62332357  0.41166799    -0.30300
H685        H  0.14438638  0.56534584  0.40915792     0.13900
H686        H  0.10927139  0.64246522  0.42296400     0.14400
C687        C  0.14143430  0.90438612  0.09527721    -0.15200
C688        C  0.10966230  0.90652512  0.10162194    -0.30300
H689        H  0.15274639  0.92314150  0.07242385     0.13900
H690        H  0.09890295  0.88703727  0.12429393     0.14400
C691        C  0.38045913  0.57596924  0.07727576    -0.15200
C692        C  0.37603210  0.57885724  0.11753695    -0.30300
H693        H  0.36250827  0.58756954  0.05680278     0.13900
H694        H  0.39339182  0.56525894  0.13752828     0.14400
C695        C  0.11348127  0.56922539  0.11141504    -0.15200
C696        C  0.11935418  0.60798764  0.10863840    -0.30300
H697        H  0.12906544  0.55124810  0.12990486     0.13900
H698        H  0.10472145  0.62545191  0.08840826     0.14400
C699        C  0.39938358  0.92193708  0.39127026    -0.15200
C700        C  0.39502507  0.88309111  0.39155663    -0.30300
H701        H  0.38232525  0.94037503  0.37555190     0.13900
H702        H  0.41102935  0.86482904  0.40920190     0.14400
C703        C  0.37960213  0.60131763  0.41731320    -0.15200
C704        C  0.41200003  0.60178185  0.41328986    -0.30300
H705        H  0.36788628  0.58440191  0.44131217     0.13900
H706        H  0.42272457  0.61941486  0.38902909     0.14400
C707        C  0.11641698  0.91212778  0.39891671    -0.15200
C708        C  0.14882641  0.91259529  0.40018579    -0.30300
H709        H  0.10519225  0.89262981  0.37695588     0.13900
H710        H  0.16181849  0.93138153  0.42109253     0.14400
C711        C  0.38130865  0.89924781  0.06396525    -0.15200
C712        C  0.38616270  0.87242492  0.09347768    -0.30300
H713        H  0.35725458  0.90555886  0.05342793     0.13900
H714        H  0.41065944  0.86727393  0.10339344     0.14400
O715        O  0.45295717  0.91241467  0.90572715    -0.74000
O716        O  0.41380602  0.95069512  0.93280382    -0.52900
C717        C  0.42379363  0.92299511  0.90965605     0.79700
O718        O  0.05597331  0.91339441  0.57357949    -0.58600
O719        O  0.09717417  0.94809171  0.54383455    -0.51700
C720        C  0.08595350  0.92077325  0.56733417     0.71700
O721        O  0.43788995  0.92192372  0.55894191    -0.73200
O722        O  0.40528589  0.96259861  0.52353058    -0.53700
C723        C  0.41006486  0.93307209  0.54689562     0.77700
O724        O  0.07024294  0.92707868  0.92064579    -0.58300
O725        O  0.10405827  0.96219648  0.96140426    -0.51400
C726        C  0.09844787  0.93713867  0.93308659     0.74300
Zr727      Zr  0.01438064  0.94109982  0.93677471     2.54700
O728        O  0.02071939  0.87044582  0.93473928    -0.78900
O729        O  0.01737981  0.94895472  0.86337983    -0.92300
Zr730      Zr  0.00362637  0.93477838  0.55173461     2.64700
O731        O  0.49496882  0.87168030  0.55125512    -0.97300
O732        O  0.00198398  0.93432492  0.62556600    -0.79300
O733        O  0.47000981  0.94668231  0.48926405    -0.82700
O734        O  0.03815948  0.93703899  0.49460228    -2.17400
O735        O  0.07013287  0.55818811  0.93761127    -0.66100
O736        O  0.10340669  0.52402627  0.97901726    -0.50600
C737        C  0.09805517  0.54922371  0.95098663     0.72700
O738        O  0.46768912  0.58076922  0.59277483    -0.59000
O739        O  0.42651779  0.55213032  0.55756683    -0.51000
C740        C  0.43763588  0.57550661  0.58467392     0.74500
O741        O  0.05213048  0.57857129  0.58395369    -0.70400
O742        O  0.09215847  0.54329269  0.55405332    -0.49100
C743        C  0.08184341  0.56973527  0.57878539     0.75900
O744        O  0.45167506  0.58041395  0.92006004    -0.65700
O745        O  0.41098210  0.54198426  0.94560894    -0.52900
C746        C  0.42177723  0.57144465  0.92461209     0.74300
Zr747      Zr  0.50373244  0.55643702  0.94015252     2.77500
O748        O  0.50528111  0.62772086  0.94101097    -0.96500
O749        O  0.50461052  0.55319239  0.86635558    -0.77300
Zr750      Zr  0.51933032  0.55478314  0.57022695     2.70100
O751        O  0.00051548  0.63233544  0.55546538    -0.78500
O752        O  0.51989119  0.54472069  0.64339919    -0.97600
Zr753      Zr  0.44167196  0.99143945  0.98271743     2.21500
Zr754      Zr  0.06452426  0.49946676  0.50552385     2.11100
O755        O  0.03972274  0.54155709  0.01463474    -2.46300
O756        O  0.46810927  0.55318513  0.99621607    -0.78300
O757        O  0.04142265  0.00194833  0.94168602    -0.70500
O758        O  0.48239758  0.50126391  0.56905175    -2.31500
O759        O  0.47719889  0.99228556  0.92558264    -2.27700
O760        O  0.02813628  0.50141155  0.56205981    -0.72300
H761        H  0.05163571  0.91424565  0.49411008     0.79700
H762        H  0.46904385  0.50117597  0.59316866     0.80800
H763        H  0.05431488  0.56370410  0.01651564     0.83000
H764        H  0.46547608  0.99483634  0.90054767     0.80600
H765        H  0.47368549  0.91650804  0.63257009     0.43700
H766        H  0.99594763  0.58661548  0.64077511     0.42700
H767        H  0.53791737  0.63317391  0.55031410     0.42300
H768        H  0.01211737  0.62464303  0.93020816     0.40300
H769        H  0.03244778  0.52305829  0.87045922     0.43400
H770        H  0.50704813  0.91517429  0.84353421     0.38200
H771        H  0.50571274  0.85159071  0.95032623     0.44300
H772        H  0.02381192  0.85600708  0.53893803     0.40700
H773        H  0.51601998  0.63559028  0.91526628     0.45600
H774        H  0.03784600  0.96341659  0.85831415     0.44400
H775        H  0.47866650  0.86445858  0.53072827     0.44500
H776        H  0.52805723  0.56983387  0.65440110     0.44800
C777        C  0.14713675  0.62262195  0.88555160     0.87800
C778        C  0.14737047  0.61979089  0.83920740    -0.52500
C779        C  0.16858776  0.64511483  0.82071519     0.10700
C780        C  0.18759376  0.67077864  0.85067323     0.21600
C781        C  0.18228893  0.61621449  0.89807942    -0.53200
C782        C  0.20365025  0.64133952  0.87979588     0.10800
C783        C  0.14051373  0.66561294  0.89451700    -0.52700
C784        C  0.16156685  0.69107134  0.87646362     0.11400
H785        H  0.13157866  0.59981858  0.82307246     0.15900
H786        H  0.20422045  0.69101543  0.83447594     0.01600
H787        H  0.19029743  0.59331362  0.91830608     0.16200
H788        H  0.12023007  0.67517476  0.91275565     0.16000
C789        C  0.15025919  0.86635097  0.86693933     0.87800
C790        C  0.15054065  0.82329203  0.88111991    -0.52500
C791        C  0.17388725  0.80167812  0.86274274     0.10700
C792        C  0.19431714  0.82457054  0.83209775     0.21600
C793        C  0.18487083  0.88161070  0.87405236    -0.53200
C794        C  0.20771995  0.85978372  0.85552401     0.10800
C795        C  0.14722809  0.86399404  0.82027339    -0.52700
C796        C  0.17045969  0.84174174  0.80213065     0.11400
H797        H  0.13390481  0.81132222  0.90364613     0.15900
H798        H  0.21264184  0.80593702  0.81746475     0.01600
H799        H  0.19137047  0.90736898  0.89128982     0.16200
H800        H  0.12796157  0.87783713  0.80367755     0.16000
C801        C  0.15748428  0.86484124  0.61343970     0.87800
C802        C  0.15110464  0.87405793  0.65815405    -0.52500
C803        C  0.16528877  0.84951740  0.68488679     0.10700
C804        C  0.18544679  0.81758756  0.66395121     0.21600
C805        C  0.19434773  0.86513936  0.60925708    -0.53200
C806        C  0.20913362  0.84013530  0.63581554     0.10800
C807        C  0.14745877  0.82162512  0.60827266    -0.52700
C808        C  0.16203239  0.79647792  0.63450377     0.11400
H809        H  0.13636500  0.89834231  0.66788067     0.15900
H810        H  0.19818644  0.79827824  0.68519606     0.01600
H811        H  0.20719786  0.88375556  0.58769385     0.16200
H812        H  0.13066221  0.81177580  0.58522071     0.16000
C813        C  0.15616477  0.61755080  0.63206537     0.87800
C814        C  0.15113518  0.66219741  0.62719810    -0.52500
C815        C  0.16807011  0.68425180  0.65466963     0.10700
C816        C  0.18810945  0.65978886  0.68384252     0.21600
C817        C  0.19294982  0.61249651  0.62929324    -0.53200
C818        C  0.20960795  0.63499796  0.65659362     0.10800
C819        C  0.14777498  0.60850716  0.67674055    -0.52700
C820        C  0.16429074  0.63077373  0.70401103     0.11400
H821        H  0.13570046  0.67467847  0.60422845     0.15900
H822        H  0.20231708  0.67806364  0.70494606     0.01600
H823        H  0.20443769  0.59370151  0.60728387     0.16200
H824        H  0.13010013  0.58640568  0.68594503     0.16000
C825        C  0.34855588  0.62977977  0.88447359     0.87800
C826        C  0.35933149  0.67278082  0.89092123    -0.52500
C827        C  0.34296161  0.69911348  0.86780446     0.10700
C828        C  0.31691451  0.67995270  0.84126655     0.21600
C829        C  0.31212874  0.62947456  0.89340385    -0.53200
C830        C  0.29564657  0.65608227  0.87054710     0.10800
C831        C  0.35114462  0.62323314  0.83832961    -0.52700
C832        C  0.33449859  0.64972658  0.81568497     0.11400
H833        H  0.37828913  0.68146746  0.91169424     0.15900
H834        H  0.30258845  0.70045843  0.82280525     0.01600
H835        H  0.30078940  0.61027193  0.91575033     0.16200
H836        H  0.36518783  0.59986194  0.82536854     0.16000
C837        C  0.35877922  0.61371033  0.63166878     0.87800
C838        C  0.36373455  0.60691061  0.67714475    -0.52500
C839        C  0.34288614  0.62669338  0.70120424     0.10700
C840        C  0.31830044  0.65098885  0.67713259     0.21600
C841        C  0.32349047  0.60206227  0.62419959    -0.53200
C842        C  0.30198712  0.62164351  0.64774290     0.10800
C843        C  0.36008252  0.65830889  0.62562542    -0.52700
C844        C  0.33858353  0.67801980  0.64931127     0.11400
H845        H  0.38240041  0.58830043  0.68927754     0.15900
H846        H  0.30160982  0.66719474  0.69674750     0.01600
H847        H  0.31610248  0.58065054  0.60174938     0.16200
H848        H  0.37665960  0.67243674  0.60444537     0.16000
C849        C  0.35855471  0.85539844  0.60581851     0.87800
C850        C  0.36287175  0.81159145  0.59837149    -0.52500
C851        C  0.34178391  0.78806737  0.61930431     0.10700
C852        C  0.31727274  0.81100922  0.64490434     0.21600
C853        C  0.32330049  0.86329748  0.59457582    -0.53200
C854        C  0.30149209  0.84039339  0.61542340     0.10800
C855        C  0.35981609  0.85986592  0.65203996    -0.52700
C856        C  0.33814252  0.83667993  0.67255350     0.11400
H857        H  0.38214413  0.80008340  0.57966493     0.15900
H858        H  0.29993200  0.79204744  0.66167722     0.01600
H859        H  0.31579387  0.88540866  0.57307572     0.16200
H860        H  0.37711789  0.87901804  0.66682513     0.16000
C861        C  0.35078348  0.87642714  0.85784976     0.87800
C862        C  0.35904539  0.88328233  0.81267307    -0.52500
C863        C  0.34255215  0.85932984  0.78697404     0.10700
C864        C  0.31897970  0.83137453  0.80895849     0.21600
C865        C  0.31443205  0.88163563  0.86071916    -0.53200
C866        C  0.29784169  0.85794853  0.83479318     0.09600
C867        C  0.35612811  0.83235495  0.86545293    -0.52700
C868        C  0.33944073  0.80880779  0.83942144     0.11400
H869        H  0.37643264  0.90514286  0.80207034     0.15900
H870        H  0.30445913  0.81196910  0.78924126     0.01600
H871        H  0.30318715  0.90258349  0.88072257     0.16200
H872        H  0.37195080  0.82125352  0.88878492     0.16000
C873        C  0.33508549  0.83436740  0.71716284    -0.15200
C874        C  0.34683374  0.86177904  0.74239462    -0.30300
H875        H  0.32224810  0.80895107  0.72885240     0.13900
H876        H  0.35980310  0.88708848  0.73037107     0.14400
C877        C  0.33385199  0.72113623  0.64864627    -0.15200
C878        C  0.34534573  0.74485534  0.61901285    -0.30300
H879        H  0.32018177  0.73326515  0.67357363     0.13900
H880        H  0.35927405  0.73274813  0.59428305     0.14400
C881        C  0.33276109  0.65119468  0.77070572    -0.15200
C882        C  0.34466158  0.62372973  0.74608183    -0.30300
H883        H  0.32135818  0.67664303  0.75773578     0.13900
H884        H  0.35707995  0.59882173  0.75869458     0.14400
C885        C  0.33975621  0.76550213  0.83853734    -0.15200
C886        C  0.34886962  0.74214977  0.86929512    -0.30300
H887        H  0.33038788  0.75260831  0.81102369     0.13900
H888        H  0.35955804  0.75453804  0.89637810     0.14400
C889        C  0.24504752  0.63896635  0.66022687    -0.15200
C890        C  0.26663520  0.61526718  0.64310675    -0.30300
H891        H  0.25317354  0.66339043  0.67829441     0.13900
H892        H  0.25843344  0.59102140  0.62454621     0.14400
C893        C  0.15688388  0.75315293  0.63132823    -0.15200
C894        C  0.16930527  0.72771377  0.65800948    -0.30300
H895        H  0.14333373  0.74216487  0.60565360     0.13900
H896        H  0.18234199  0.73876254  0.68389712     0.14400
C897        C  0.24449898  0.83422643  0.63899724    -0.15200
C898        C  0.26619193  0.84609892  0.61082763    -0.30300
H899        H  0.25255568  0.81919423  0.66601878     0.13900
H900        H  0.25822811  0.86173960  0.58407630     0.14400
C901        C  0.17349641  0.83318382  0.75809554    -0.15200
C902        C  0.16089576  0.85589882  0.72921214    -0.30300
H903        H  0.18811079  0.80847213  0.74977190     0.13900
H904        H  0.14721139  0.88126516  0.73824108     0.14400
C905        C  0.24230026  0.86860545  0.85898533    -0.15200
C906        C  0.26278831  0.85672385  0.83029832    -0.30300
H907        H  0.25079810  0.88332721  0.88603614     0.13900
H908        H  0.25381178  0.84326049  0.80281933     0.14400
C909        C  0.17334843  0.64924151  0.77621171    -0.15200
C910        C  0.15903881  0.62614129  0.74844592    -0.30300
H911        H  0.18949450  0.67264879  0.76679042     0.13900
H912        H  0.14276599  0.60281235  0.75811040     0.14400
C913        C  0.26051391  0.66271739  0.87135148    -0.15200
C914        C  0.23882180  0.63663278  0.88545344    -0.30300
H915        H  0.25257930  0.68945477  0.85710579     0.13900
H916        H  0.24690765  0.60995983  0.89993433     0.14400
C917        C  0.17987186  0.75963434  0.86907775    -0.15200
C918        C  0.15660942  0.73380480  0.87877162    -0.30300
H919        H  0.20374932  0.74952704  0.86141296     0.13900
H920        H  0.13272857  0.74399671  0.88660721     0.14400
C921        C  0.12581519  0.57008017  0.93321111    -0.15200
C922        C  0.12145379  0.59685273  0.90386802    -0.30300
H923        H  0.14931722  0.56415570  0.94555275     0.13900
H924        H  0.09732875  0.60222998  0.89268741     0.14400
C925        C  0.13966024  0.89262638  0.58574648    -0.15200
C926        C  0.10752839  0.89478841  0.58983460    -0.30300
H927        H  0.15262613  0.91114020  0.56411617     0.13900
H928        H  0.09571567  0.87528511  0.61169467     0.14400
C929        C  0.41431716  0.59779400  0.60885132    -0.15200
C930        C  0.38233669  0.59204525  0.60549401    -0.30300
H931        H  0.42351693  0.61873789  0.63076297     0.13900
H932        H  0.37295750  0.57083233  0.58400114     0.14400
C933        C  0.10436061  0.59308439  0.60404095    -0.15200
C934        C  0.13671915  0.59236306  0.60274757    -0.30300
H935        H  0.09320869  0.61291005  0.62549096     0.13900
H936        H  0.14891899  0.57317063  0.58168528     0.14400
C937        C  0.40165766  0.90041585  0.88454507    -0.15200
C938        C  0.36969939  0.90258721  0.88566539    -0.30300
H939        H  0.41260280  0.87962661  0.86387761     0.13900
H940        H  0.35769994  0.92266081  0.90602818     0.14400
C941        C  0.36770459  0.60026313  0.90886036    -0.15200
C942        C  0.39968067  0.59792836  0.90303471    -0.30300
H943        H  0.35559023  0.58112635  0.93069428     0.13900
H944        H  0.41091095  0.61819286  0.88146942     0.14400
C945        C  0.12648260  0.91809617  0.91385348    -0.15200
C946        C  0.12299932  0.88890252  0.88654491    -0.30300
H947        H  0.15004111  0.92759492  0.92389022     0.13900
H948        H  0.09886494  0.87911114  0.87857820     0.14400
C949        C  0.38161345  0.91047765  0.56143487    -0.15200
C950        C  0.38518114  0.87929306  0.58602249    -0.30300
H951        H  0.35798810  0.92038885  0.55272461     0.13900
H952        H  0.40931770  0.87066867  0.59456936     0.14400
O953        O  0.94691654  0.42542014  0.42105069    -0.74000
O954        O  0.91071830  0.47027642  0.44318640    -0.52900
C955        C  0.91816676  0.43905747  0.42430039     0.79700
O956        O  0.54927727  0.41891683  0.08179048    -0.58600
O957        O  0.59016485  0.45483099  0.05262702    -0.51700
C958        C  0.57927623  0.42805852  0.07721553     0.71700
O959        O  0.94045520  0.40758467  0.07661362    -0.73200
O960        O  0.90814133  0.44378014  0.03565499    -0.53700
C961        C  0.91252424  0.41762673  0.06309639     0.77700
O962        O  0.55793372  0.42314681  0.42057118    -0.58300
O963        O  0.60032584  0.44944946  0.45551723    -0.51400
C964        C  0.58819198  0.42716927  0.42792558     0.74300
Zr965      Zr  0.50605891  0.44688139  0.44391531     2.54700
O966        O  0.49962028  0.37611865  0.44004598    -0.78900
O967        O  0.50463631  0.45488620  0.37046515    -0.92300
Zr968      Zr  0.49696734  0.43577833  0.05359056     2.64700
O969        O  0.99533741  0.35289333  0.06061216    -0.97300
O970        O  0.48903515  0.43142995  0.12670419    -0.79300
O971        O  0.97339192  0.42654393  0.00147203    -0.82700
O972        O  0.53383153  0.43975266  0.99823038    -2.17400
O973        O  0.56789236  0.08078524  0.43062048    -0.66100
O974        O  0.60020800  0.04333747  0.47043446    -0.50600
C975        C  0.59559021  0.06976583  0.44329317     0.72700
O976        O  0.94079805  0.05975143  0.07609715    -0.59000
O977        O  0.90802101  0.01964738  0.03845659    -0.51000
C978        C  0.91297056  0.04515252  0.06605398     0.74500
O979        O  0.55911268  0.05973909  0.07527120    -0.70400
O980        O  0.59570827  0.01922598  0.04561811    -0.49100
C981        C  0.58823009  0.04760928  0.06929621     0.75900
O982        O  0.95743154  0.07249188  0.41207031    -0.65700
O983        O  0.91655350  0.03759224  0.44271802    -0.52900
C984        C  0.92750771  0.06338558  0.41721535     0.74300
Zr985      Zr  0.00993428  0.05603091  0.43918052     2.77500
O986        O  0.00930278  0.12608177  0.45211503    -0.96500
O987        O  0.01488942  0.06562747  0.36619197    -0.77300
Zr988      Zr  0.99875487  0.05043437  0.06055753     2.70100
O989        O  0.50599341  0.11289222  0.05552768    -0.78500
O990        O  0.99681201  0.04343350  0.13405875    -0.97600
Zr991      Zr  0.94034234  0.51014226  0.48991572     2.21500
Zr992      Zr  0.56533447  0.97943089  0.99752181     2.11100
O993        O  0.53575155  0.06121228  0.50773365    -2.46300
O994        O  0.97367516  0.05255208  0.49517717    -0.78300
O995        O  0.54322451  0.50027635  0.44573655    -0.70500
O996        O  0.97097982  0.98958064  0.05498429    -2.31500
O997        O  0.97553621  0.50886146  0.43256387    -2.27700
O998        O  0.53004160  0.98058548  0.05503785    -0.72300
H999        H  0.54813646  0.41775847  0.99900564     0.79700
H1000       H  0.95619923  0.98653931  0.07753298     0.80800
H1001       H  0.55026997  0.08328563  0.51101776     0.83000
H1002       H  0.96350881  0.51063750  0.40762188     0.80600
H1003       H  0.98418392  0.39411132  0.14515502     0.43700
H1004       H  0.49539396  0.06109956  0.13718305     0.42700
H1005       H  0.97929968  0.12704680  0.03788428     0.42300
H1006       H  0.52470680  0.14040823  0.47733453     0.40300
H1007       H  0.53527064  0.05191768  0.36310879     0.43400
H1008       H  0.98006250  0.46501402  0.35630609     0.38200
H1009       H  0.01176333  0.36797087  0.45645468     0.44300
H1010       H  0.48204914  0.35815211  0.02763191     0.40700
H1011       H  0.98624187  0.13239214  0.45534364     0.45600
H1012       H  0.48331392  0.46618370  0.36475106     0.44400
H1013       H  0.01676351  0.34535131  0.05019231     0.44500
H1014       H  0.98062878  0.02241993  0.13920538     0.44800
C1015       C  0.65129637  0.13300815  0.37278832     0.87800
C1016       C  0.64990396  0.12440569  0.32714596    -0.52500
C1017       C  0.67410917  0.14205410  0.30523934     0.10700
C1018       C  0.69752450  0.16631182  0.33101582     0.21600
C1019       C  0.68525149  0.12041593  0.38578024    -0.53200
C1020       C  0.70941429  0.13800918  0.36418216     0.10800
C1021       C  0.65185888  0.17797384  0.37538210    -0.52700
C1022       C  0.67601663  0.19561101  0.35301409     0.11400
H1023       H  0.63124290  0.10621974  0.31367878     0.15900
H1024       H  0.71678131  0.18048162  0.31239945     0.01600
H1025       H  0.69055033  0.09954618  0.40952442     0.16200
H1026       H  0.63425733  0.19387092  0.39296508     0.16000
C1027       C  0.65974074  0.37657859  0.37419633     0.87800
C1028       C  0.65054162  0.33343365  0.38088905    -0.52500
C1029       C  0.66536885  0.30831233  0.35520712     0.10700
C1030       C  0.68803215  0.32903788  0.32423645     0.21600
C1031       C  0.69673504  0.37793447  0.37703330    -0.53200
C1032       C  0.71164491  0.35291015  0.35066598     0.10800
C1033       C  0.65258716  0.38475726  0.32928980    -0.52700
C1034       C  0.66716786  0.36007159  0.30272422     0.11400
H1035       H  0.63398979  0.32352955  0.40459345     0.15900
H1036       H  0.70012759  0.30859553  0.30339885     0.01600
H1037       H  0.70958753  0.39714936  0.39761091     0.16200
H1038       H  0.63712462  0.40829383  0.31939581     0.16000
C1039       C  0.65510872  0.37470454  0.11909101     0.87800
C1040       C  0.65429529  0.37651814  0.16588709    -0.52500
C1041       C  0.67343786  0.34935404  0.18451916     0.10700
C1042       C  0.69141928  0.32311632  0.15426013     0.21600
C1043       C  0.69098376  0.37887612  0.10800123    -0.53200
C1044       C  0.71028777  0.35211659  0.12624526     0.10800
C1045       C  0.64615994  0.33204129  0.10891950    -0.52700
C1046       C  0.66468523  0.30461575  0.12750363     0.11400
H1047       H  0.64010291  0.39776336  0.18214220     0.15900
H1048       H  0.70683335  0.30192819  0.17001076     0.01600
H1049       H  0.70047720  0.40182647  0.08818153     0.16200
H1050       H  0.62627506  0.32422533  0.08916171     0.16000
C1051       C  0.64535961  0.12620326  0.11925605     0.87800
C1052       C  0.64551362  0.17147169  0.11468489    -0.52500
C1053       C  0.66560866  0.19047755  0.14122405     0.10700
C1054       C  0.68332741  0.16257024  0.16951327     0.21600
C1055       C  0.68149123  0.11498035  0.11488110    -0.53200
C1056       C  0.70134430  0.13476707  0.14141655     0.10800
C1057       C  0.63710645  0.11882105  0.16416184    -0.52700
C1058       C  0.65719564  0.13728881  0.19051884     0.11400
H1059       H  0.63119656  0.18664107  0.09231450     0.15900
H1060       H  0.69934194  0.17859735  0.19066381     0.01600
H1061       H  0.69033875  0.09472682  0.09231920     0.16200
H1062       H  0.61713648  0.10025176  0.17424916     0.16000
C1063       C  0.85377653  0.11550110  0.37182437     0.87800
C1064       C  0.86597151  0.15757337  0.37918753    -0.52500
C1065       C  0.84989775  0.18530675  0.35811743     0.10700
C1066       C  0.82336371  0.16839462  0.33086164     0.21600
C1067       C  0.81731238  0.11665648  0.38149029    -0.53200
C1068       C  0.80160117  0.14484087  0.35965733     0.10800
C1069       C  0.85551148  0.10983614  0.32548843    -0.52700
C1070       C  0.83914791  0.13757871  0.30410141     0.11400
H1071       H  0.88501880  0.16485289  0.40042555     0.15900
H1072       H  0.81026505  0.19028405  0.31260586     0.01600
H1073       H  0.80542193  0.09752740  0.40347216     0.16200
H1074       H  0.86808901  0.08579197  0.31143613     0.16000
C1075       C  0.85073550  0.10903542  0.11976400     0.87800
C1076       C  0.85584410  0.09650203  0.16389784    -0.52500
C1077       C  0.83434905  0.11184731  0.19038790     0.10700
C1078       C  0.80882449  0.13774036  0.16996213     0.21600
C1079       C  0.81573496  0.09685058  0.10997765    -0.53200
C1080       C  0.79336322  0.11240403  0.13592303     0.10800
C1081       C  0.85038307  0.15373841  0.12053049    -0.52700
C1082       C  0.82872634  0.16902480  0.14712632     0.11400
H1083       H  0.87602351  0.07897372  0.17368030     0.15900
H1084       H  0.79158560  0.15002661  0.19209432     0.01600
H1085       H  0.80922214  0.07912115  0.08398299     0.16200
H1086       H  0.86580771  0.17140941  0.10085807     0.16000
C1087       C  0.85759659  0.34874932  0.13028960     0.87800
C1088       C  0.86429497  0.30522598  0.12465066    -0.52500
C1089       C  0.84339565  0.28072421  0.14445858     0.10700
C1090       C  0.81743855  0.30211707  0.16863664     0.21600
C1091       C  0.82195209  0.35366736  0.11714837    -0.53200
C1092       C  0.80098759  0.32872327  0.13767613     0.10800
C1093       C  0.85694901  0.35452750  0.17628106    -0.52700
C1094       C  0.83590619  0.33015164  0.19651256     0.11400
H1095       H  0.88425617  0.29462261  0.10648253     0.15900
H1096       H  0.80043429  0.28268669  0.18557324     0.01600
H1097       H  0.81410878  0.37423164  0.09422725     0.16200
H1098       H  0.87272627  0.37552886  0.19097990     0.16000
C1099       C  0.86227755  0.35953319  0.38000302     0.87800
C1100       C  0.86605201  0.36854754  0.33466869    -0.52500
C1101       C  0.84367581  0.35066745  0.31098085     0.10700
C1102       C  0.81903308  0.32569800  0.33505957     0.21600
C1103       C  0.82747662  0.37105264  0.39069697    -0.53200
C1104       C  0.80457694  0.35356373  0.36686224     0.09600
C1105       C  0.86233636  0.31470358  0.38302909    -0.52700
C1106       C  0.83955477  0.29705897  0.35930891     0.11400
H1107       H  0.88543435  0.38674562  0.32224611     0.15900
H1108       H  0.80127422  0.31031685  0.31599965     0.01600
H1109       H  0.82158029  0.39141825  0.41470203     0.16200
H1110       H  0.87874466  0.29873826  0.40228181     0.16000
C1111       C  0.83162056  0.32854940  0.24115552    -0.15200
C1112       C  0.84535620  0.35446906  0.26638638    -0.30300
H1113       H  0.81748763  0.30421313  0.25316559     0.13900
H1114       H  0.85996609  0.37844239  0.25450951     0.14400
C1115       C  0.82442879  0.21156988  0.15328493    -0.15200
C1116       C  0.84714925  0.23792788  0.14196191    -0.30300
H1117       H  0.80207120  0.22079721  0.16706272     0.13900
H1118       H  0.86975287  0.22813457  0.12926211     0.14400
C1119       C  0.83404915  0.13839339  0.25954560    -0.15200
C1120       C  0.83916770  0.10809279  0.23475847    -0.30300
H1121       H  0.82486797  0.16538069  0.24686935     0.13900
H1122       H  0.84930452  0.08122199  0.24637563     0.14400
C1123       C  0.83413268  0.25448453  0.35547659    -0.15200
C1124       C  0.85630831  0.22758300  0.36416088    -0.30300
H1125       H  0.81087576  0.24560000  0.34377638     0.13900
H1126       H  0.87939017  0.23639401  0.37665247     0.14400
C1127       C  0.73726108  0.13491652  0.14370668    -0.15200
C1128       C  0.75769576  0.10801543  0.12933101    -0.30300
H1129       H  0.74732377  0.15995226  0.15939258     0.13900
H1130       H  0.74852223  0.08345533  0.11192636     0.14400
C1131       C  0.65768327  0.26168173  0.12226387    -0.15200
C1132       C  0.67208441  0.23361175  0.14417197    -0.30300
H1133       H  0.63941060  0.25331121  0.10046651     0.13900
H1134       H  0.68971029  0.24213991  0.16657226     0.14400
C1135       C  0.74617736  0.35482480  0.12231675    -0.15200
C1136       C  0.76541664  0.32535574  0.13306197    -0.30300
H1137       H  0.75689310  0.38240875  0.11228081     0.13900
H1138       H  0.75467363  0.29776361  0.14274064     0.14400
C1139       C  0.66219435  0.36473501  0.25797181    -0.15200
C1140       C  0.67819601  0.34461007  0.22935599    -0.30300
H1141       H  0.64465852  0.38611067  0.24861146     0.13900
H1142       H  0.69588874  0.32344482  0.23859751     0.14400
C1143       C  0.74698966  0.34798778  0.34597337    -0.15200
C1144       C  0.76942936  0.36105470  0.37225077    -0.30300
H1145       H  0.75413173  0.33194430  0.31934910     0.13900
H1146       H  0.76206975  0.37743835  0.39874065     0.14400
C1147       C  0.67774529  0.14068558  0.26060270    -0.15200
C1148       C  0.65327679  0.13343078  0.23510698    -0.30300
H1149       H  0.70140818  0.14822643  0.24870054     0.13900
H1150       H  0.62967349  0.12516200  0.24687078     0.14400
C1151       C  0.76702508  0.15406425  0.36108755    -0.15200
C1152       C  0.74365439  0.12856781  0.37129206    -0.30300
H1153       H  0.76066081  0.18274248  0.34972083     0.13900
H1154       H  0.74953772  0.10008834  0.38372926     0.14400
C1155       C  0.65964407  0.26543900  0.35924338    -0.15200
C1156       C  0.68120139  0.23862917  0.34779568    -0.30300
H1157       H  0.63740825  0.25614418  0.37400504     0.13900
H1158       H  0.70363540  0.24820459  0.33365943     0.14400
C1159       C  0.62449890  0.08825177  0.42513086    -0.15200
C1160       C  0.62271910  0.11492492  0.39502068    -0.30300
H1161       H  0.64735278  0.07846937  0.43652053     0.13900
H1162       H  0.59918718  0.12398091  0.38456044     0.14400
C1163       C  0.63410421  0.40452400  0.09736553    -0.15200
C1164       C  0.60185735  0.40444166  0.10200721    -0.30300
H1165       H  0.64531459  0.42478608  0.07585692     0.13900
H1166       H  0.59111544  0.38360853  0.12333891     0.14400
C1167       C  0.88426381  0.05730782  0.08852716    -0.15200
C1168       C  0.87705037  0.09499416  0.09192111    -0.30300
H1169       H  0.86864779  0.03500607  0.10209676     0.13900
H1170       H  0.89239741  0.11648539  0.07646109     0.14400
C1171       C  0.61522617  0.06665853  0.09199381    -0.15200
C1172       C  0.62105001  0.10570333  0.09132005    -0.30300
H1173       H  0.63091059  0.04796773  0.10954199     0.13900
H1174       H  0.60608641  0.12380853  0.07213329     0.14400
C1175       C  0.89143760  0.41842691  0.40437449    -0.15200
C1176       C  0.88838811  0.37934463  0.40439729    -0.30300
H1177       H  0.87303602  0.43601598  0.39010041     0.13900
H1178       H  0.90580430  0.36167164  0.42044599     0.14400
C1179       C  0.87294873  0.08605670  0.39596312    -0.15200
C1180       C  0.90513844  0.08521200  0.39119476    -0.30300
H1181       H  0.86105925  0.06795664  0.41889748     0.13900
H1182       H  0.91616061  0.10425061  0.36830429     0.14400
C1183       C  0.60936087  0.40350554  0.40195009    -0.15200
C1184       C  0.64177054  0.40341473  0.40278974    -0.30300
H1185       H  0.59723591  0.38451211  0.38032342     0.13900
H1186       H  0.65491324  0.42197408  0.42379271     0.14400
C1187       C  0.88310876  0.39790392  0.08004728    -0.15200
C1188       C  0.88491818  0.37268174  0.11128466    -0.30300
H1189       H  0.86001090  0.40409344  0.06645519     0.13900
H1190       H  0.90848571  0.36721515  0.12416535     0.14400
O1191       O  0.95841823  0.40845171  0.92138677    -0.74000
O1192       O  0.91821575  0.44450059  0.94947448    -0.52900
C1193       C  0.92876038  0.41765818  0.92569672     0.79700
O1194       O  0.55948991  0.41047025  0.57720875    -0.58600
O1195       O  0.60126516  0.44139246  0.54445144    -0.51700
C1196       C  0.58935836  0.41461289  0.56803116     0.71700
O1197       O  0.93761938  0.42873381  0.56650992    -0.73200
O1198       O  0.90438354  0.46721227  0.52917366    -0.53700
C1199       C  0.90958894  0.43946567  0.55481536     0.77700
O1200       O  0.56478363  0.42812895  0.91818960    -0.58300
O1201       O  0.59774251  0.46115018  0.96191231    -0.51400
C1202       C  0.59281665  0.43758518  0.93220339     0.74300
Zr1203     Zr  0.50806301  0.44196357  0.93414874     2.54700
O1204       O  0.51370804  0.37130714  0.93040837    -0.78900
O1205       O  0.51091893  0.44818630  0.86049971    -0.92300
Zr1206     Zr  0.50860381  0.44058007  0.56321519     2.64700
O1207       O  0.98890822  0.37478191  0.55181368    -0.97300
O1208       O  0.51036510  0.44088440  0.63700021    -0.79300
O1209       O  0.96687303  0.44893890  0.49293690    -0.82700
O1210       O  0.53850804  0.43875558  0.50214234    -2.17400
O1211       O  0.56933533  0.05805119  0.92219834    -0.66100
O1212       O  0.60248323  0.01757850  0.95744621    -0.50600
C1213       C  0.59719037  0.04562055  0.93265170     0.72700
O1214       O  0.94508025  0.06757415  0.57217559    -0.59000
O1215       O  0.90997765  0.03310004  0.53248740    -0.51000
C1216       C  0.91638996  0.05815513  0.56022946     0.74500
O1217       O  0.55160138  0.07682307  0.58964240    -0.70400
O1218       O  0.59217363  0.04289305  0.55954326    -0.49100
C1219       C  0.58163836  0.06852707  0.58488448     0.75900
O1220       O  0.95194276  0.07455433  0.92189524    -0.65700
O1221       O  0.91260430  0.03604506  0.95047091    -0.52900
C1222       C  0.92229712  0.06516794  0.92797051     0.74300
Zr1223     Zr  0.00527345  0.05514009  0.94201195     2.77500
O1224       O  0.00367314  0.12585888  0.95061599    -0.96500
O1225       O  0.00493381  0.06026644  0.86829448    -0.77300
Zr1226     Zr  0.00125377  0.04935902  0.55771101     2.70100
O1227       O  0.49873136  0.12872196  0.57155261    -0.78500
O1228       O  0.99696368  0.03992204  0.63082625    -0.97600
Zr1229     Zr  0.94502630  0.48656963  0.99883703     2.21500
Zr1230     Zr  0.56445801  0.00121047  0.50962170     2.11100
O1231       O  0.53901113  0.04122846  0.99737974    -2.46300
O1232       O  0.97024732  0.04988105  0.99829272    -0.78300
O1233       O  0.53766573  0.50129392  0.94084021    -0.70500
O1234       O  0.97073318  0.99080683  0.55304405    -2.31500
O1235       O  0.98132067  0.48688359  0.94247213    -2.27700
O1236       O  0.52734061  0.99872730  0.56495209    -0.72300
H1237       H  0.54969376  0.41427012  0.50009969     0.79700
H1238       H  0.95575588  0.98919020  0.57554369     0.80800
H1239       H  0.55443935  0.06252277  0.99934702     0.83000
H1240       H  0.96986726  0.48844496  0.91715791     0.80600
H1241       H  0.00467627  0.46476001  0.63877785     0.43700
H1242       H  0.50808802  0.02926401  0.64287182     0.42700
H1243       H  0.00980357  0.12993847  0.53732009     0.42300
H1244       H  0.53564620  0.12119848  0.96142245     0.40300
H1245       H  0.53374802  0.03765763  0.85280001     0.43400
H1246       H  0.01941081  0.40095508  0.86557952     0.38200
H1247       H  0.00474525  0.34775227  0.92352380     0.44300
H1248       H  0.51711667  0.36037239  0.54194141     0.40700
H1249       H  0.01079923  0.13673110  0.92408813     0.45600
H1250       H  0.51101315  0.42087116  0.85065975     0.44400
H1251       H  0.99463336  0.36518236  0.57919594     0.44500
H1252       H  0.99942482  0.06655210  0.64215517     0.44800
C1253       C  0.64787058  0.13015401  0.89239445     0.87800
C1254       C  0.64967852  0.12307662  0.84651939    -0.52500
C1255       C  0.67161188  0.14672896  0.82692763     0.10700
C1256       C  0.68958374  0.17492142  0.85554995     0.21600
C1257       C  0.68223623  0.12503449  0.90801496    -0.53200
C1258       C  0.70443807  0.14782027  0.88808022     0.10800
C1259       C  0.64097981  0.17356933  0.89684973    -0.52700
C1260       C  0.66276903  0.19730074  0.87799433     0.11400
H1261       H  0.63487245  0.10119149  0.83158558     0.15900
H1262       H  0.70686236  0.19430100  0.83924325     0.01600
H1263       H  0.68860405  0.10405115  0.93139545     0.16200
H1264       H  0.62039813  0.18477340  0.91343339     0.16000
C1265       C  0.65036314  0.37158524  0.86765556     0.87800
C1266       C  0.65100285  0.32829632  0.88055578    -0.52500
C1267       C  0.67559140  0.30786679  0.86330349     0.10700
C1268       C  0.69702766  0.33225177  0.83511332     0.21600
C1269       C  0.68442142  0.38763963  0.87809290    -0.53200
C1270       C  0.70876879  0.36695889  0.86074102     0.10800
C1271       C  0.64972706  0.37051680  0.82086583    -0.52700
C1272       C  0.67425085  0.34951961  0.80387719     0.11400
H1273       H  0.63347587  0.31534491  0.90136315     0.15900
H1274       H  0.71618577  0.31429789  0.82133530     0.01600
H1275       H  0.68940556  0.41268082  0.89713366     0.16200
H1276       H  0.63116921  0.38474764  0.80341014     0.16000
C1277       C  0.65972375  0.35941000  0.61516076     0.87800
C1278       C  0.65082896  0.36873641  0.65919043    -0.52500
C1279       C  0.66507342  0.34568574  0.68719234     0.10700
C1280       C  0.68725598  0.31468000  0.66837968     0.21600
C1281       C  0.69655626  0.36198826  0.61359501    -0.53200
C1282       C  0.71112039  0.33829647  0.64154222     0.10800
C1283       C  0.65167011  0.31573427  0.60998340    -0.52700
C1284       C  0.66588783  0.29191095  0.63777913     0.11400
H1285       H  0.63469245  0.39216381  0.66754764     0.15900
H1286       H  0.69943632  0.29635590  0.69114147     0.01600
H1287       H  0.70950324  0.38131697  0.59280513     0.16200
H1288       H  0.63610218  0.30466322  0.58616662     0.16000
C1289       C  0.65804298  0.11376218  0.63891937     0.87800
C1290       C  0.65425787  0.15840928  0.63349635    -0.52500
C1291       C  0.67212749  0.18021237  0.66023938     0.10700
C1292       C  0.69174643  0.15546207  0.68967336     0.21600
C1293       C  0.69493053  0.10734107  0.63576127    -0.53200
C1294       C  0.71248913  0.12940689  0.66275874     0.10800
C1295       C  0.64984297  0.10583678  0.68392810    -0.52700
C1296       C  0.66728269  0.12781938  0.71066615     0.11400
H1297       H  0.63886986  0.17106663  0.61059522     0.15900
H1298       H  0.70641102  0.17379804  0.71022647     0.01600
H1299       H  0.70581599  0.08711802  0.61464883     0.16200
H1300       H  0.63133268  0.08502455  0.69371953     0.16000
C1301       C  0.84881520  0.12417082  0.88676497     0.87800
C1302       C  0.85866493  0.16697282  0.89646705    -0.52500
C1303       C  0.84275664  0.19448445  0.87415057     0.10700
C1304       C  0.81813334  0.17634222  0.84476482     0.21600
C1305       C  0.81204106  0.12280708  0.89341013    -0.53200
C1306       C  0.79617632  0.15024924  0.87097337     0.10800
C1307       C  0.85316578  0.12051879  0.84024878    -0.52700
C1308       C  0.83692241  0.14805177  0.81831184     0.11400
H1309       H  0.87662566  0.17468279  0.91895928     0.15900
H1310       H  0.80412188  0.19753474  0.82679861     0.01600
H1311       H  0.79980171  0.10121846  0.91247620     0.16200
H1312       H  0.86773822  0.09804661  0.82650233     0.16000
C1313       C  0.86346888  0.12096314  0.63294327     0.87800
C1314       C  0.86725804  0.11221304  0.67822944    -0.52500
C1315       C  0.84536764  0.12984586  0.70258992     0.10700
C1316       C  0.82071931  0.15443961  0.67888283     0.21600
C1317       C  0.82834257  0.10863699  0.62326287    -0.53200
C1318       C  0.80572947  0.12599892  0.64738934     0.10800
C1319       C  0.86369569  0.16572361  0.62959128    -0.52700
C1320       C  0.84110699  0.18349374  0.65331495     0.11400
H1321       H  0.88631777  0.09407629  0.69018406     0.15900
H1322       H  0.80313923  0.16948076  0.69842398     0.01600
H1323       H  0.82144768  0.08856461  0.59943882     0.16200
H1324       H  0.88073891  0.18146080  0.61028134     0.16000
C1325       C  0.85987006  0.36374574  0.61932626     0.87800
C1326       C  0.86594750  0.32029261  0.61150278    -0.52500
C1327       C  0.84519073  0.29536604  0.63123579     0.10700
C1328       C  0.81955155  0.31662077  0.65656915     0.21600
C1329       C  0.82463675  0.36974295  0.60706514    -0.53200
C1330       C  0.80342512  0.34532261  0.62683743     0.10800
C1331       C  0.86005829  0.36768840  0.66575313    -0.52700
C1332       C  0.83893786  0.34290421  0.68541289     0.11400
H1333       H  0.88568342  0.31008469  0.59272168     0.15900
H1334       H  0.80245925  0.29660023  0.67238028     0.01600
H1335       H  0.81664267  0.39142707  0.58539422     0.16200
H1336       H  0.87602857  0.38803629  0.68110129     0.16000
C1337       C  0.85387449  0.37312342  0.87353971     0.87800
C1338       C  0.86285703  0.38025204  0.82858773    -0.52500
C1339       C  0.84540125  0.35835453  0.80192052     0.10700
C1340       C  0.82033202  0.33163274  0.82300560     0.21600
C1341       C  0.81759251  0.38101630  0.87591567    -0.53200
C1342       C  0.80015331  0.35940660  0.84888642     0.09600
C1343       C  0.85691123  0.32852981  0.88014725    -0.52700
C1344       C  0.83933103  0.30676134  0.85331377     0.11400
H1345       H  0.88133402  0.40110920  0.81878313     0.15900
H1346       H  0.80527932  0.31360541  0.80257250     0.01600
H1347       H  0.80706277  0.40265976  0.89576519     0.16200
H1348       H  0.87212883  0.31577141  0.90320333     0.16000
C1349       C  0.83463569  0.33964923  0.73009668    -0.15200
C1350       C  0.85023184  0.36217125  0.75727980    -0.30300
H1351       H  0.81785191  0.31716841  0.74022169     0.13900
H1352       H  0.86725906  0.38441857  0.74693498     0.14400
C1353       C  0.83601923  0.22654319  0.65524449    -0.15200
C1354       C  0.84907920  0.25228176  0.62850517    -0.30300
H1355       H  0.82098951  0.23686951  0.67980793     0.13900
H1356       H  0.86426892  0.24192873  0.60409007     0.14400
C1357       C  0.83556459  0.15163716  0.77326645    -0.15200
C1358       C  0.84678777  0.12485003  0.74740331    -0.30300
H1359       H  0.82454131  0.17778130  0.76119108     0.13900
H1360       H  0.85870424  0.09912069  0.75901190     0.14400
C1361       C  0.83838732  0.26331164  0.85033627    -0.15200
C1362       C  0.84793890  0.23766996  0.87900357    -0.30300
H1363       H  0.82850443  0.25239779  0.82225053     0.13900
H1364       H  0.85906597  0.24822458  0.90663544     0.14400
C1365       C  0.74811935  0.13026269  0.66846045    -0.15200
C1366       C  0.77031701  0.11924553  0.64107816    -0.30300
H1367       H  0.75607452  0.14284690  0.69678094     0.13900
H1368       H  0.76251621  0.10594134  0.61290398     0.14400
C1369       C  0.66120850  0.24854633  0.63584000    -0.15200
C1370       C  0.67436300  0.22368720  0.66249152    -0.30300
H1371       H  0.64698774  0.23700025  0.61102954     0.13900
H1372       H  0.68853086  0.23513108  0.68724475     0.14400
C1373       C  0.74637539  0.33530580  0.64736119    -0.15200
C1374       C  0.76829656  0.34787559  0.61992232    -0.30300
H1375       H  0.75414686  0.32215779  0.67557068     0.13900
H1376       H  0.76059765  0.36159012  0.59193674     0.14400
C1377       C  0.67952434  0.34194739  0.75996366    -0.15200
C1378       C  0.65876994  0.35204790  0.73096228    -0.30300
H1379       H  0.70170201  0.32761815  0.75154711     0.13900
H1380       H  0.63698653  0.36739084  0.73894129     0.14400
C1381       C  0.74342212  0.37494873  0.86808427    -0.15200
C1382       C  0.76539942  0.36266799  0.84118312    -0.30300
H1383       H  0.75070227  0.38784952  0.89666751     0.13900
H1384       H  0.75759833  0.35158949  0.81206036     0.14400
C1385       C  0.67851875  0.14629746  0.78261163    -0.15200
C1386       C  0.66122246  0.12575850  0.75525853    -0.30300
H1387       H  0.69856090  0.16458450  0.77289699     0.13900
H1388       H  0.64120526  0.10742084  0.76533765     0.14400
C1389       C  0.76100345  0.15373727  0.86683075    -0.15200
C1390       C  0.73940031  0.14339182  0.89531064    -0.30300
H1391       H  0.75302655  0.16617609  0.83840446     0.13900
H1392       H  0.74726772  0.13008443  0.92348848     0.14400
C1393       C  0.68151269  0.26561123  0.86817373    -0.15200
C1394       C  0.65823967  0.24005516  0.87837022    -0.30300
H1395       H  0.70524603  0.25536546  0.86001627     0.13900
H1396       H  0.63451833  0.25052803  0.88647670     0.14400
C1397       C  0.62478907  0.06683650  0.91594365    -0.15200
C1398       C  0.62289785  0.10567173  0.91311762    -0.30300
H1399       H  0.64627697  0.05142568  0.90663938     0.13900
H1400       H  0.60180589  0.12023142  0.92527909     0.14400
C1401       C  0.64237160  0.38592025  0.58606048    -0.15200
C1402       C  0.61012979  0.38588822  0.58751651    -0.30300
H1403       H  0.65565995  0.40660160  0.56697271     0.13900
H1404       H  0.59793231  0.36459763  0.60716151     0.14400
C1405       C  0.88818664  0.07644235  0.57981098    -0.15200
C1406       C  0.89110059  0.10342321  0.60906589    -0.30300
H1407       H  0.86463646  0.06632635  0.57026327     0.13900
H1408       H  0.91511470  0.11310306  0.61777075     0.14400
C1409       C  0.60462661  0.09113129  0.61095637    -0.15200
C1410       C  0.63720433  0.08920037  0.60998840    -0.30300
H1411       H  0.59383988  0.11115223  0.63246370     0.13900
H1412       H  0.64882663  0.06957675  0.58884757     0.14400
C1413       C  0.90623347  0.39471387  0.90075818    -0.15200
C1414       C  0.87409571  0.39765572  0.90194105    -0.30300
H1415       H  0.91683140  0.37381960  0.87997691     0.13900
H1416       H  0.86267060  0.41815163  0.92237098     0.14400
C1417       C  0.86743969  0.09340481  0.91077563    -0.15200
C1418       C  0.89962747  0.09140392  0.90638217    -0.30300
H1419       H  0.85481375  0.07342122  0.93129951     0.13900
H1420       H  0.91097570  0.11243573  0.88571443     0.14400
C1421       C  0.62203725  0.42033434  0.91368042    -0.15200
C1422       C  0.62104082  0.39201223  0.88538001    -0.30300
H1423       H  0.64489466  0.43055546  0.92540656     0.13900
H1424       H  0.59767942  0.38124443  0.87536775     0.14400
C1425       C  0.88151028  0.41795144  0.57221078    -0.15200
C1426       C  0.88574713  0.38916896  0.59979123    -0.30300
H1427       H  0.85774705  0.42577016  0.56191982     0.13900
H1428       H  0.91002208  0.38256785  0.60958795     0.14400
O1429       O  0.95651735  0.92152057  0.40730836    -0.74000
O1430       O  0.91567006  0.95091301  0.44160967    -0.52900
C1431       C  0.92654374  0.92769119  0.41436916     0.79700
O1432       O  0.54343366  0.89962757  0.07306065    -0.58600
O1433       O  0.58629607  0.93137207  0.04343402    -0.51700
C1434       C  0.57365881  0.90560429  0.06741823     0.71700
O1435       O  0.95201559  0.91030696  0.07030219    -0.73200
O1436       O  0.91305966  0.93988706  0.03296392    -0.53700
C1437       C  0.92255707  0.91515647  0.05996575     0.77700
O1438       O  0.56361728  0.93234303  0.41987924    -0.58300
O1439       O  0.59711679  0.95834821  0.46779078    -0.51400
C1440       C  0.59154192  0.93736374  0.43617650     0.74300
Zr1441     Zr  0.50763816  0.94980800  0.43484628     2.54700
O1442       O  0.50956968  0.87893738  0.42896788    -0.78900
O1443       O  0.51140189  0.95885527  0.36162852    -0.92300
Zr1444     Zr  0.49414321  0.92642965  0.04723481     2.64700
O1445       O  0.00986187  0.86517263  0.04748634    -0.97300
O1446       O  0.48659737  0.92740501  0.12052072    -0.79300
O1447       O  0.97839919  0.93367583  0.99258940    -0.82700
O1448       O  0.53028777  0.92437218  0.99134768    -2.17400
O1449       O  0.57337663  0.57576226  0.43104024    -0.66100
O1450       O  0.60815811  0.53262661  0.45987768    -0.50600
C1451       C  0.60165395  0.56187730  0.43694292     0.72700
O1452       O  0.94745853  0.55843276  0.08433295    -0.59000
O1453       O  0.91230602  0.52329331  0.04501447    -0.51000
C1454       C  0.91888855  0.54787423  0.07308101     0.74500
O1455       O  0.54747807  0.57514171  0.08447434    -0.70400
O1456       O  0.58944010  0.54463364  0.05326327    -0.49100
C1457       C  0.57797315  0.56959025  0.07856800     0.75900
O1458       O  0.96120004  0.59078028  0.41535041    -0.65700
O1459       O  0.91809172  0.55787213  0.44307553    -0.52900
C1460       C  0.93082062  0.58436481  0.41979761     0.74300
Zr1461     Zr  0.01137559  0.56330231  0.43907375     2.77500
O1462       O  0.02052839  0.63381455  0.43849734    -0.96500
O1463       O  0.01463785  0.55824146  0.36551950    -0.77300
Zr1464     Zr  0.00359952  0.54045725  0.07032814     2.70100
O1465       O  0.49033696  0.62187569  0.06381605    -0.78500
O1466       O  0.00070847  0.53593174  0.14400679    -0.97600
Zr1467     Zr  0.94302899  0.99291671  0.48979883     2.21500
Zr1468     Zr  0.56345820  0.49990629  0.00547220     2.11100
O1469       O  0.54975683  0.55478884  0.50915889    -2.46300
O1470       O  0.97448243  0.56638030  0.49447489    -0.78300
O1471       O  0.54054898  0.00632694  0.44408587    -0.70500
O1472       O  0.97024576  0.48359796  0.06390182    -2.31500
O1473       O  0.97828796  0.99793232  0.43223307    -2.27700
O1474       O  0.52718295  0.49479921  0.06200143    -0.72300
H1475       H  0.54205812  0.90021461  0.99162102     0.79700
H1476       H  0.95449452  0.48295931  0.08555052     0.80800
H1477       H  0.56548021  0.57585194  0.50970146     0.83000
H1478       H  0.96628737  0.99870876  0.40718406     0.80600
H1479       H  0.99974188  0.90555472  0.13591979     0.43700
H1480       H  0.48620119  0.56831322  0.14384667     0.42700
H1481       H  0.00373935  0.61825614  0.10099744     0.42300
H1482       H  0.54387129  0.63712772  0.46876165     0.40300
H1483       H  0.52658147  0.59169316  0.37027644     0.43400
H1484       H  0.99917075  0.96394682  0.35073514     0.38200
H1485       H  0.00062403  0.86140545  0.40881590     0.44300
H1486       H  0.47700789  0.84802567  0.06946405     0.40700
H1487       H  0.00649697  0.64369861  0.46044012     0.45600
H1488       H  0.53265030  0.97168060  0.35705450     0.44400
H1489       H  0.00656459  0.85442616  0.07517941     0.44500
H1490       H  0.98318111  0.51667256  0.14954176     0.44800
C1491       C  0.65530523  0.63890480  0.38376793     0.87800
C1492       C  0.65455818  0.62662187  0.33899605    -0.52500
C1493       C  0.67793908  0.64443528  0.31596387     0.10700
C1494       C  0.69958144  0.67265116  0.33965476     0.21600
C1495       C  0.68969235  0.63036429  0.39813323    -0.53200
C1496       C  0.71295467  0.64811631  0.37491572     0.10800
C1497       C  0.65319517  0.68378722  0.38289297    -0.52700
C1498       C  0.67663952  0.70152841  0.35965927     0.11400
H1499       H  0.63728172  0.60561228  0.32705194     0.15900
H1500       H  0.71793203  0.68704176  0.31982675     0.01600
H1501       H  0.69512749  0.61168563  0.42388827     0.16200
H1502       H  0.63438379  0.69960038  0.39846479     0.16000
C1503       C  0.64760680  0.88047819  0.36266160     0.87800
C1504       C  0.64461019  0.83865465  0.37925463    -0.52500
C1505       C  0.66710748  0.81379416  0.36448397     0.10700
C1506       C  0.69135785  0.83357468  0.33490703     0.21600
C1507       C  0.68222206  0.89369311  0.37254178    -0.53200
C1508       C  0.70525402  0.86932331  0.35780298     0.10800
C1509       C  0.64742076  0.87579962  0.31605269    -0.52700
C1510       C  0.67057335  0.85104524  0.30134323     0.11400
H1511       H  0.62549427  0.82917829  0.39987970     0.15900
H1512       H  0.70989421  0.81356668  0.32332850     0.01600
H1513       H  0.68799098  0.92021098  0.38913433     0.16200
H1514       H  0.63082266  0.89158255  0.29696163     0.16000
C1515       C  0.64843860  0.86062975  0.11358143     0.87800
C1516       C  0.64199234  0.86719555  0.15855186    -0.52500
C1517       C  0.66094153  0.84626930  0.18389632     0.10700
C1518       C  0.68542889  0.82009411  0.16091708     0.21600
C1519       C  0.68393788  0.87012017  0.10753479    -0.53200
C1520       C  0.70371677  0.84929141  0.13185982     0.10800
C1521       C  0.64513940  0.81658723  0.10733666    -0.52700
C1522       C  0.66404724  0.79467073  0.13199859     0.11400
H1523       H  0.62371891  0.88708421  0.16949040     0.15900
H1524       H  0.70122324  0.80316841  0.18123380     0.01600
H1525       H  0.69282311  0.89170499  0.08568535     0.16200
H1526       H  0.62872407  0.80377898  0.08538266     0.16000
C1527       C  0.65508763  0.61638686  0.13014876     0.87800
C1528       C  0.65274459  0.66133168  0.12517316    -0.52500
C1529       C  0.67155425  0.68219547  0.15193296     0.10700
C1530       C  0.69040488  0.65610922  0.18085208     0.21600
C1531       C  0.69180665  0.60826135  0.12663762    -0.53200
C1532       C  0.71020025  0.62931371  0.15365206     0.10800
C1533       C  0.64684969  0.60847168  0.17507757    -0.52700
C1534       C  0.66532974  0.62912167  0.20164781     0.11400
H1535       H  0.63751235  0.67477474  0.10261026     0.15900
H1536       H  0.70535759  0.67381616  0.20175766     0.01600
H1537       H  0.70194807  0.58765302  0.10533527     0.16200
H1538       H  0.62786419  0.58835895  0.18499599     0.16000
C1539       C  0.85764854  0.63812057  0.37528449     0.87800
C1540       C  0.86750189  0.68136311  0.38090103    -0.52500
C1541       C  0.84976162  0.70683041  0.35859339     0.10700
C1542       C  0.82357217  0.68647977  0.33313322     0.21600
C1543       C  0.82155574  0.63646327  0.38591163    -0.53200
C1544       C  0.80389905  0.66228064  0.36383074     0.10800
C1545       C  0.85921699  0.63100526  0.32919358    -0.52700
C1546       C  0.84100933  0.65638125  0.30700156     0.11400
H1547       H  0.88638039  0.69096187  0.40138323     0.15900
H1548       H  0.80816052  0.70612292  0.31512491     0.01600
H1549       H  0.81126738  0.61748079  0.40925097     0.16200
H1550       H  0.87321149  0.60769716  0.31603546     0.16000
C1551       C  0.86077373  0.61979240  0.12253436     0.87800
C1552       C  0.86637892  0.61239782  0.16781767    -0.52500
C1553       C  0.84458841  0.62967843  0.19266108     0.10700
C1554       C  0.81835561  0.65203984  0.16939266     0.21600
C1555       C  0.82603194  0.60550827  0.11451409    -0.53200
C1556       C  0.80340454  0.62228462  0.13907961     0.10800
C1557       C  0.85957612  0.66433192  0.11807474    -0.52700
C1558       C  0.83725139  0.68132438  0.14255490     0.11400
H1559       H  0.88677264  0.59622220  0.17928450     0.15900
H1560       H  0.80093802  0.66679843  0.18930097     0.01600
H1561       H  0.81987359  0.58476286  0.09087294     0.16200
H1562       H  0.87568032  0.68061175  0.09798491     0.16000
C1563       C  0.84813797  0.86271232  0.10925213     0.87800
C1564       C  0.85548731  0.81971916  0.09963797    -0.52500
C1565       C  0.84058293  0.79329391  0.12481117     0.10700
C1566       C  0.81939187  0.81239084  0.15723538     0.21600
C1567       C  0.81098477  0.86464844  0.10808118    -0.53200
C1568       C  0.79604442  0.83777776  0.13362654     0.10800
C1569       C  0.85642352  0.86790044  0.15441297    -0.52700
C1570       C  0.84121564  0.84147259  0.17930791     0.11400
H1571       H  0.87122726  0.81101084  0.07493213     0.15900
H1572       H  0.80669357  0.79218608  0.17841859     0.01600
H1573       H  0.79815525  0.88469929  0.08859589     0.16200
H1574       H  0.87265637  0.89056840  0.16544658     0.16000
C1575       C  0.85119008  0.88387597  0.36250516     0.87800
C1576       C  0.85851725  0.89363410  0.31765042    -0.52500
C1577       C  0.84191249  0.87089168  0.29107315     0.10700
C1578       C  0.81848197  0.84179713  0.31166087     0.21600
C1579       C  0.81447097  0.88849670  0.36694886    -0.53200
C1580       C  0.79733858  0.86626478  0.33987727     0.09600
C1581       C  0.85672621  0.83951586  0.36680048    -0.52700
C1582       C  0.83955043  0.81755015  0.33979712     0.11400
H1583       H  0.87619550  0.91550084  0.30788897     0.15900
H1584       H  0.80405819  0.82381155  0.29030657     0.01600
H1585       H  0.80342003  0.90751980  0.38910021     0.16200
H1586       H  0.87321798  0.82720105  0.38865856     0.16000
C1587       C  0.84277468  0.84078649  0.22393554    -0.15200
C1588       C  0.84720575  0.87280162  0.24669825    -0.30300
H1589       H  0.83688588  0.81298545  0.23838523     0.13900
H1590       H  0.85384162  0.90067521  0.23285017     0.14400
C1591       C  0.83220402  0.72392635  0.14583876    -0.15200
C1592       C  0.84480046  0.75059497  0.11983676    -0.30300
H1593       H  0.81764527  0.73280651  0.17131786     0.13900
H1594       H  0.85891766  0.74125882  0.09396975     0.14400
C1595       C  0.83650269  0.65582590  0.26219253    -0.15200
C1596       C  0.84858152  0.62848071  0.23746443    -0.30300
H1597       H  0.82272482  0.67953213  0.24938821     0.13900
H1598       H  0.86340531  0.60548868  0.24976915     0.14400
C1599       C  0.84048870  0.77453941  0.33543306    -0.15200
C1600       C  0.85352979  0.74990679  0.36240924    -0.30300
H1601       H  0.82893473  0.76311846  0.30857854     0.13900
H1602       H  0.86618943  0.76118063  0.38864065     0.14400
C1603       C  0.74581363  0.62860710  0.15947791    -0.15200
C1604       C  0.76792909  0.61514932  0.13320593    -0.30300
H1605       H  0.75390586  0.64237291  0.18709159     0.13900
H1606       H  0.76003598  0.60036635  0.10587645     0.14400
C1607       C  0.66179411  0.75106816  0.12881893    -0.15200
C1608       C  0.67496531  0.72585118  0.15496298    -0.30300
H1609       H  0.64764199  0.73948167  0.10396955     0.13900
H1610       H  0.68905296  0.73730843  0.17992428     0.14400
C1611       C  0.73885676  0.85692693  0.12853342    -0.15200
C1612       C  0.76087529  0.83098222  0.13927398    -0.30300
H1613       H  0.74665811  0.88430425  0.11451127     0.13900
H1614       H  0.75311469  0.80356169  0.15320055     0.14400
C1615       C  0.67672350  0.84201635  0.25752458    -0.15200
C1616       C  0.65555159  0.85059142  0.22837135    -0.30300
H1617       H  0.69931987  0.82847156  0.24939493     0.13900
H1618       H  0.63293160  0.86367115  0.23709578     0.14400
C1619       C  0.74030774  0.87725789  0.36295961    -0.15200
C1620       C  0.76179858  0.86361928  0.33609588    -0.30300
H1621       H  0.74820495  0.89430920  0.38880796     0.13900
H1622       H  0.75314609  0.84837601  0.30947130     0.14400
C1623       C  0.68321082  0.63878502  0.27206548    -0.15200
C1624       C  0.66028645  0.62688078  0.24619176    -0.30300
H1625       H  0.70678776  0.64745189  0.26075246     0.13900
H1626       H  0.63691192  0.61710403  0.25748511     0.14400
C1627       C  0.76911923  0.66889715  0.36785373    -0.15200
C1628       C  0.74772489  0.64215922  0.38135873    -0.30300
H1629       H  0.76078609  0.69656203  0.35594735     0.13900
H1630       H  0.75557210  0.61484049  0.39471928     0.14400
C1631       C  0.66567073  0.77146341  0.37469337    -0.15200
C1632       C  0.67975969  0.74415592  0.35173544    -0.30300
H1633       H  0.65122670  0.76265784  0.40080808     0.13900
H1634       H  0.69403599  0.75270560  0.32547377     0.14400
C1635       C  0.62870525  0.58084877  0.41555289    -0.15200
C1636       C  0.62910971  0.61951681  0.40857348    -0.30300
H1637       H  0.64881043  0.56307177  0.40591544     0.13900
H1638       H  0.60976365  0.63735699  0.42041085     0.14400
C1639       C  0.62714098  0.88420444  0.08700638    -0.15200
C1640       C  0.59515050  0.88076971  0.09051958    -0.30300
H1641       H  0.63797819  0.90514903  0.06586951     0.13900
H1642       H  0.58459979  0.85971930  0.11179799     0.14400
C1643       C  0.89136057  0.56395473  0.09493510    -0.15200
C1644       C  0.88672554  0.60246766  0.09638896    -0.30300
H1645       H  0.87439830  0.54387197  0.10962382     0.13900
H1646       H  0.90309467  0.62191614  0.07974478     0.14400
C1647       C  0.60078431  0.59417644  0.10313928    -0.15200
C1648       C  0.63344950  0.59246950  0.10148844    -0.30300
H1649       H  0.59003433  0.61435622  0.12448792     0.13900
H1650       H  0.64473202  0.57237243  0.08053221     0.14400
C1651       C  0.90385853  0.90583971  0.38860914    -0.15200
C1652       C  0.87159169  0.90780755  0.39124107    -0.30300
H1653       H  0.91438102  0.88681931  0.36589915     0.13900
H1654       H  0.86020817  0.92648329  0.41351606     0.14400
C1655       C  0.87760332  0.61019223  0.39993746    -0.15200
C1656       C  0.90975220  0.60977079  0.39573519    -0.30300
H1657       H  0.86572339  0.59088626  0.42183111     0.13900
H1658       H  0.92123620  0.62979723  0.37416123     0.14400
C1659       C  0.61924380  0.91629614  0.41852187    -0.15200
C1660       C  0.62125054  0.90668460  0.37895451    -0.30300
H1661       H  0.63851492  0.90800322  0.43883799     0.13900
H1662       H  0.60280072  0.91663881  0.35822979     0.14400
C1663       C  0.89943603  0.88949579  0.08219060    -0.15200
C1664       C  0.86701465  0.89107394  0.08195094    -0.30300
H1665       H  0.91037656  0.86786121  0.10193446     0.13900
H1666       H  0.85469454  0.91227268  0.06319404     0.14400
O1667       O  0.96462821  0.91383528  0.91216292    -0.74000
O1668       O  0.92124395  0.94324914  0.94135201    -0.52900
C1669       C  0.93435720  0.91888651  0.91673431     0.79700
O1670       O  0.54304207  0.91904625  0.58336180    -0.58600
O1671       O  0.58589575  0.95305001  0.55646690    -0.51700
C1672       C  0.57326043  0.92628155  0.57951535     0.71700
O1673       O  0.94972841  0.91268237  0.56713088    -0.73200
O1674       O  0.91153699  0.94577966  0.53178000    -0.53700
C1675       C  0.92048055  0.91964672  0.55777776     0.77700
O1676       O  0.55772198  0.90886016  0.91053781    -0.58300
O1677       O  0.59545858  0.93541495  0.95251824    -0.51400
C1678       C  0.58670792  0.91308102  0.92288290     0.74300
Zr1679     Zr  0.50502703  0.93222965  0.92800071     2.54700
O1680       O  0.50507386  0.86129682  0.92199002    -0.78900
O1681       O  0.50635664  0.94194856  0.85477874    -0.92300
Zr1682     Zr  0.49389251  0.94285538  0.55410219     2.64700
O1683       O  0.00202251  0.86359772  0.54801754    -0.97300
O1684       O  0.48251897  0.94299381  0.62664130    -0.79300
O1685       O  0.97474643  0.93547569  0.48994528    -0.82700
O1686       O  0.53161494  0.94415209  0.49978686    -2.17400
O1687       O  0.55760307  0.57806849  0.92427782    -0.66100
O1688       O  0.59439856  0.54691054  0.96373669    -0.50600
C1689       C  0.58633497  0.57193577  0.93621675     0.72700
O1690       O  0.94342288  0.58103840  0.57439511    -0.59000
O1691       O  0.90812009  0.55379401  0.52952641    -0.51000
C1692       C  0.91484294  0.57568364  0.55980304     0.74500
O1693       O  0.57537057  0.56943294  0.58748853    -0.70400
O1694       O  0.60981142  0.53213152  0.55041479    -0.49100
C1695       C  0.60389151  0.55860893  0.57721747     0.75900
O1696       O  0.96406608  0.57183273  0.93076972    -0.65700
O1697       O  0.92107985  0.53803654  0.95732607    -0.52900
C1698       C  0.93381191  0.56610038  0.93605576     0.74300
Zr1699     Zr  0.01418703  0.54334791  0.95095925     2.77500
O1700       O  0.02279801  0.61389243  0.95452676    -0.96500
O1701       O  0.01701454  0.54389307  0.87718295    -0.77300
Zr1702     Zr  0.99920828  0.56118235  0.55858323     2.70100
O1703       O  0.52596674  0.62544653  0.57524708    -0.78500
O1704       O  0.99560067  0.55885976  0.63235686    -0.97600
Zr1705     Zr  0.94312215  0.98817856  0.99152642     2.21500
Zr1706     Zr  0.57550830  0.49276392  0.50506909     2.11100
O1707       O  0.53010953  0.55629572  0.00380336    -2.46300
O1708       O  0.97767171  0.54404597  0.00628290    -0.78300
O1709       O  0.54013311  0.98656867  0.93337033    -0.70500
O1710       O  0.96537542  0.50543293  0.55457855    -2.31500
O1711       O  0.97827296  0.99442206  0.93425773    -2.27700
O1712       O  0.54574405  0.49359809  0.56716335    -0.72300
H1713       H  0.54437013  0.92076725  0.50061685     0.79700
H1714       H  0.94968187  0.50552757  0.57632386     0.80800
H1715       H  0.54297253  0.57993412  0.00595498     0.83000
H1716       H  0.96629265  0.99427093  0.90926332     0.80600
H1717       H  0.98695411  0.95541042  0.63282953     0.43700
H1718       H  0.53755718  0.52610742  0.64804307     0.42700
H1719       H  0.99913505  0.64068156  0.58412680     0.42300
H1720       H  0.52094479  0.63468439  0.96240184     0.40300
H1721       H  0.51863813  0.53081239  0.86013327     0.43400
H1722       H  0.02132280  0.92227134  0.85311397     0.38200
H1723       H  0.00558558  0.86017535  0.95567890     0.44300
H1724       H  0.48548881  0.86278183  0.57741353     0.40700
H1725       H  0.00923833  0.62227032  0.97762347     0.45600
H1726       H  0.52799279  0.95324259  0.84899603     0.44400
H1727       H  0.00063028  0.85475372  0.57664449     0.44500
H1728       H  0.97338761  0.54958680  0.63841878     0.44800
C1729       C  0.66464142  0.62374576  0.90105812     0.87800
C1730       C  0.66298235  0.62077983  0.85438532    -0.52500
C1731       C  0.68310160  0.64657222  0.83441252     0.10700
C1732       C  0.70328734  0.67202805  0.86305930     0.21600
C1733       C  0.70000536  0.61791468  0.91136544    -0.53200
C1734       C  0.72042562  0.64281796  0.89127672     0.10800
C1735       C  0.65829979  0.66700192  0.91046448    -0.52700
C1736       C  0.67815570  0.69253010  0.89005883     0.11400
H1737       H  0.64726270  0.60011235  0.83902529     0.15900
H1738       H  0.71993281  0.69230940  0.84694918     0.01600
H1739       H  0.70830079  0.59545170  0.93211561     0.16200
H1740       H  0.63906764  0.67655582  0.93040513     0.16000
C1741       C  0.66454079  0.86900888  0.87687756     0.87800
C1742       C  0.66184787  0.82466964  0.88579269    -0.52500
C1743       C  0.68245010  0.80284505  0.86289540     0.10700
C1744       C  0.70364176  0.82712347  0.83389557     0.21600
C1745       C  0.70012347  0.87923788  0.88348079    -0.53200
C1746       C  0.72058985  0.85754252  0.86075386     0.10800
C1747       C  0.65966952  0.87286581  0.83042813    -0.52700
C1748       C  0.68032097  0.85041410  0.80795365     0.11400
H1749       H  0.64490853  0.81208085  0.90756786     0.15900
H1750       H  0.72003526  0.80864667  0.81582230     0.01600
H1751       H  0.70847369  0.90165294  0.90431573     0.16200
H1752       H  0.64133805  0.89117986  0.81723003     0.16000
C1753       C  0.64766469  0.87575760  0.62320903     0.87800
C1754       C  0.64532504  0.88453542  0.66852518    -0.52500
C1755       C  0.66503275  0.86266992  0.69216894     0.10700
C1756       C  0.68606347  0.83380242  0.66731636     0.21600
C1757       C  0.68303973  0.88178499  0.61243879    -0.53200
C1758       C  0.70337484  0.85994576  0.63486966     0.10800
C1759       C  0.64148091  0.83144397  0.61971749    -0.52700
C1760       C  0.66135308  0.80895741  0.64296110     0.11400
H1761       H  0.62908779  0.90613912  0.68092148     0.15900
H1762       H  0.70291544  0.81651445  0.68563910     0.01600
H1763       H  0.69146202  0.90170507  0.58869958     0.16200
H1764       H  0.62279300  0.81901380  0.60059780     0.16000
C1765       C  0.65241657  0.63083949  0.64800415     0.87800
C1766       C  0.65091903  0.67555409  0.64189204    -0.52500
C1767       C  0.67066895  0.69674945  0.66702663     0.10700
C1768       C  0.69006482  0.67065442  0.69600825     0.21600
C1769       C  0.68855411  0.62106193  0.64289315    -0.53200
C1770       C  0.70818213  0.64202133  0.66846733     0.10800
C1771       C  0.64535788  0.62449264  0.69340438    -0.52700
C1772       C  0.66515731  0.64476620  0.71878557     0.11400
H1773       H  0.63531684  0.68866851  0.61953463     0.15900
H1774       H  0.70616619  0.68803606  0.71587916     0.01600
H1775       H  0.69769448  0.59934186  0.62215324     0.16200
H1776       H  0.62651963  0.60475001  0.70455629     0.16000
C1777       C  0.86399976  0.62564952  0.89178940     0.87800
C1778       C  0.87397027  0.66909077  0.89553523    -0.52500
C1779       C  0.85847821  0.69330633  0.86909179     0.10700
C1780       C  0.83424899  0.67146123  0.84169602     0.21600
C1781       C  0.82738282  0.62510703  0.89759720    -0.53200
C1782       C  0.81176701  0.64927186  0.87116068     0.10800
C1783       C  0.86925847  0.61562819  0.84694053    -0.52700
C1784       C  0.85378121  0.63945464  0.82061910     0.11400
H1785       H  0.89146995  0.67968292  0.91737462     0.15900
H1786       H  0.82079349  0.69046385  0.82085905     0.01600
H1787       H  0.81529881  0.60652726  0.91986323     0.16200
H1788       H  0.88393596  0.59142756  0.83686888     0.16000
C1789       C  0.85792196  0.62225046  0.63917138     0.87800
C1790       C  0.86100880  0.62178238  0.68556393    -0.52500
C1791       C  0.83819855  0.64311672  0.70518632     0.10700
C1792       C  0.81441677  0.66258573  0.67648632     0.21600
C1793       C  0.82294567  0.60794675  0.63098322    -0.53200
C1794       C  0.79994250  0.62926944  0.65085159     0.10800
C1795       C  0.85824277  0.66581831  0.62737963    -0.52700
C1796       C  0.83509599  0.68670045  0.64681997     0.11400
H1797       H  0.87986233  0.60600574  0.70090727     0.15900
H1798       H  0.79683727  0.68109741  0.69254362     0.01600
H1799       H  0.81702621  0.58383893  0.61094917     0.16200
H1800       H  0.87473936  0.67841168  0.60506828     0.16000
C1801       C  0.84655474  0.86582797  0.60584609     0.87800
C1802       C  0.85606354  0.82301115  0.59867976    -0.52500
C1803       C  0.84088756  0.79688239  0.62380742     0.10700
C1804       C  0.81730940  0.81593331  0.65367463     0.21600
C1805       C  0.80951711  0.86586472  0.60206987    -0.53200
C1806       C  0.79429081  0.83957327  0.62779970     0.10800
C1807       C  0.85276965  0.87294293  0.65142016    -0.52700
C1808       C  0.83712547  0.84667921  0.67613795     0.11400
H1809       H  0.87378298  0.81427056  0.57622870     0.15900
H1810       H  0.80477512  0.79562464  0.67503035     0.01600
H1811       H  0.79685506  0.88523316  0.58166833     0.16200
H1812       H  0.86702421  0.89731735  0.66284407     0.16000
C1813       C  0.86393938  0.87036590  0.86099210     0.87800
C1814       C  0.87242589  0.87857285  0.81615482    -0.52500
C1815       C  0.85553510  0.85590656  0.78967432     0.10700
C1816       C  0.83218544  0.82668673  0.81076934     0.21600
C1817       C  0.82749741  0.87531022  0.86389480    -0.53200
C1818       C  0.81081040  0.85214921  0.83753761     0.09600
C1819       C  0.86938117  0.82627239  0.86727180    -0.52700
C1820       C  0.85275147  0.80332445  0.84059855     0.11400
H1821       H  0.88968412  0.90089665  0.80631417     0.15900
H1822       H  0.81831288  0.80723931  0.79031175     0.01600
H1823       H  0.81626864  0.89573977  0.88448525     0.16200
H1824       H  0.88506224  0.81477828  0.89052673     0.16000
C1825       C  0.83501914  0.84835098  0.72066042    -0.15200
C1826       C  0.85883442  0.86027105  0.74503127    -0.30300
H1827       H  0.81271595  0.83699795  0.73352973     0.13900
H1828       H  0.88089805  0.87274119  0.73229658     0.14400
C1829       C  0.82803725  0.72839371  0.64039179    -0.15200
C1830       C  0.84851975  0.75470308  0.62395057    -0.30300
H1831       H  0.80468540  0.73757015  0.65119565     0.13900
H1832       H  0.87153478  0.74567375  0.61167893     0.14400
C1833       C  0.85663644  0.63369013  0.77631634    -0.15200
C1834       C  0.83572509  0.64858032  0.74969698    -0.30300
H1835       H  0.87626605  0.61571027  0.76592964     0.13900
H1836       H  0.81546284  0.66529379  0.76045738     0.14400
C1837       C  0.85268578  0.75988619  0.83942833    -0.15200
C1838       C  0.86330662  0.73660800  0.86947011    -0.30300
H1839       H  0.84203022  0.74706586  0.81267118     0.13900
H1840       H  0.87480142  0.74936790  0.89582204     0.14400
C1841       C  0.74356000  0.63802720  0.67322106    -0.15200
C1842       C  0.76437715  0.62362549  0.64567743    -0.30300
H1843       H  0.75281076  0.64979750  0.70131564     0.13900
H1844       H  0.75551545  0.61000640  0.61818708     0.14400
C1845       C  0.65787654  0.76516674  0.64302986    -0.15200
C1846       C  0.67433657  0.74063194  0.66733878    -0.30300
H1847       H  0.64045671  0.75302062  0.62207654     0.13900
H1848       H  0.69137267  0.75272055  0.68879699     0.14400
C1849       C  0.73843842  0.86363120  0.62709112    -0.15200
C1850       C  0.75907136  0.83492974  0.63449715    -0.30300
H1851       H  0.74722626  0.89070796  0.61333695     0.13900
H1852       H  0.75036012  0.80786528  0.64833418     0.14400
C1853       C  0.68139371  0.84631886  0.76296114    -0.15200
C1854       C  0.66406652  0.86766744  0.73709670    -0.30300
H1855       H  0.69754299  0.82451131  0.75115788     0.13900
H1856       H  0.64809791  0.88970966  0.74904284     0.14400
C1857       C  0.75574601  0.86235229  0.86365906    -0.15200
C1858       C  0.77553215  0.85088388  0.83387998    -0.30300
H1859       H  0.76526482  0.87499368  0.89128270     0.13900
H1860       H  0.76595636  0.83881101  0.80605057     0.14400
C1861       C  0.68574315  0.65126738  0.78958433    -0.15200
C1862       C  0.66262626  0.63968977  0.76364663    -0.30300
H1863       H  0.70728480  0.66592112  0.77824971     0.13900
H1864       H  0.64105670  0.62524237  0.77539468     0.14400
C1865       C  0.77649674  0.65352182  0.86824781    -0.15200
C1866       C  0.75562936  0.63985514  0.89624318    -0.30300
H1867       H  0.76778731  0.66800097  0.84123331     0.13900
H1868       H  0.76420657  0.62453359  0.92286758     0.14400
C1869       C  0.68508708  0.75966852  0.86301135    -0.15200
C1870       C  0.67384536  0.73561675  0.89232438    -0.30300
H1871       H  0.69745346  0.74762024  0.83703516     0.13900
H1872       H  0.66050847  0.74733745  0.91781315     0.14400
C1873       C  0.61067927  0.59692229  0.91608713    -0.15200
C1874       C  0.64226074  0.59563187  0.92310310    -0.30300
H1875       H  0.60196419  0.61822602  0.89423933     0.13900
H1876       H  0.65177137  0.57457386  0.94457031     0.14400
C1877       C  0.62629632  0.90090609  0.59765560    -0.15200
C1878       C  0.59444197  0.90124286  0.60350051    -0.30300
H1879       H  0.63720549  0.91974701  0.57454740     0.13900
H1880       H  0.58356242  0.88190969  0.62620168     0.14400
C1881       C  0.88740758  0.59594894  0.57868585    -0.15200
C1882       C  0.88476564  0.59971538  0.61901055    -0.30300
H1883       H  0.86824331  0.60637102  0.55930267     0.13900
H1884       H  0.90329412  0.58714428  0.63803958     0.14400
C1885       C  0.63173514  0.57841998  0.59769374    -0.15200
C1886       C  0.62721418  0.60917668  0.62275337    -0.30300
H1887       H  0.65570213  0.56740622  0.59225270     0.13900
H1888       H  0.60277679  0.61923922  0.62746254     0.14400
C1889       C  0.91422571  0.89443164  0.89067321    -0.15200
C1890       C  0.88217846  0.89584325  0.89004786    -0.30300
H1891       H  0.92645312  0.87450264  0.87028688     0.13900
H1892       H  0.86933204  0.91548884  0.91005400     0.14400
C1893       C  0.88175473  0.59799061  0.91942427    -0.15200
C1894       C  0.91363079  0.59449606  0.91479872    -0.30300
H1895       H  0.86861463  0.57967119  0.94108922     0.13900
H1896       H  0.92596322  0.61376414  0.89317676     0.14400
C1897       C  0.61035873  0.88945724  0.90033676    -0.15200
C1898       C  0.64235805  0.89387716  0.90254615    -0.30300
H1899       H  0.60073040  0.86783633  0.87940113     0.13900
H1900       H  0.65256443  0.91580507  0.92265215     0.14400
C1901       C  0.89728729  0.89471427  0.58053712    -0.15200
C1902       C  0.86501657  0.89437591  0.57845357    -0.30300
H1903       H  0.90821120  0.87443121  0.60182112     0.13900
H1904       H  0.85255244  0.91377119  0.55783118     0.14400
loop_ 
_geom_bond_atom_site_label_1 
_geom_bond_atom_site_label_2 
_geom_bond_distance 
_geom_bond_site_symmetry_2 
_ccdc_geom_bond_type 
O1            C3   1.292       .  A
O1         Zr965   2.459       .  S
O2            C3   1.282       .  A
O2          Zr39   2.409       .  S
C3          C223   1.470       .  S
O4            C6   1.289       .  A
O4          Zr16   2.452   1_455  S
O5            C6   1.284       .  A
O5         Zr516   2.402       .  S
C6          C212   1.472       .  S
O7            C9   1.291       .  A
O7         Zr968   2.454       .  S
O8            C9   1.287       .  A
O8         Zr277   2.438   1_554  S
C9          C235   1.483       .  S
O10          C12   1.284       .  A
O10         Zr13   2.422       .  S
O11          C12   1.294       .  A
O11        Zr754   2.468       .  S
C12         C231   1.481       .  S
Zr13        O953   2.465   1_455  S
Zr13         O14   2.435       .  S
Zr13         O15   2.437       .  S
Zr13         O43   2.379       .  S
Zr13       O1209   2.356   1_455  S
Zr13        O258   2.380       .  S
Zr13        O997   2.363   1_455  S
O14        H1009   0.990       .  S
O15          H60   0.990       .  S
O15        H1008   0.990   1_455  S
Zr16        O959   2.472       .  S
Zr16         O18   2.434       .  S
Zr16        O969   2.436       .  S
Zr16         O20   2.380   1_655  S
Zr16        O971   2.369       .  S
Zr16       O1472   2.361       .  S
Zr16        O522   2.384   1_655  S
O17        Zr968   2.436       .  S
O17          H61   0.990       .  S
O17        H1010   0.990       .  S
O18        H1003   0.990       .  S
O19       Zr1203   2.377       .  S
O19        Zr968   2.370   1_556  S
O19        Zr277   2.393       .  S
O20        Zr251   2.364   1_554  S
O20        Zr516   2.382       .  S
O20          H47   0.966       .  S
O21          C23   1.292       .  A
O21        Zr985   2.460       .  S
O22          C23   1.282       .  A
O22        Zr278   2.407   1_545  S
C23         C207   1.469       .  S
O24          C26   1.299       .  A
O24         Zr36   2.487       .  S
O25          C26   1.282       .  A
O25        Zr753   2.397   1_544  S
C26         C215   1.479       .  S
O27          C29   1.297       .  A
O27        Zr988   2.482   1_455  S
O28          C29   1.291       .  A
O28         Zr40   2.443       .  S
C29         C219   1.497       .  S
O30          C32   1.289       .  A
O30         Zr33   2.450       .  S
O31          C32   1.283       .  A
O31        Zr515   2.412       .  S
C32         C228   1.473       .  S
Zr33        O973   2.433       .  S
Zr33         O34   2.436       .  S
Zr33         O35   2.434       .  S
Zr33         O42   2.364       .  S
Zr33        O993   2.375       .  S
Zr33        O521   2.368       .  S
Zr33       O1471   2.374       .  S
O34          H59   0.990       .  S
O34        H1006   0.990       .  S
O35        H1007   0.990       .  S
Zr36        O979   2.494       .  S
Zr36         O38   2.434       .  S
Zr36        O989   2.434       .  S
Zr36         O44   2.385   1_545  S
Zr36        O280   2.375   1_554  S
Zr36       O1231   2.371   1_554  S
Zr36        O998   2.380   1_545  S
O37        Zr988   2.434       .  S
O37        H1005   0.990       .  S
O38          H62   0.990       .  S
O38        H1004   0.990       .  S
Zr39        O246   2.457       .  S
Zr39        O739   2.412       .  S
Zr39        O507   2.438       .  S
Zr39         O45   2.387       .  S
Zr39        O257   2.379       .  S
Zr39        O518   2.390       .  S
Zr39        O758   2.388       .  S
Zr40        O481   2.482   1_545  S
Zr40        O725   2.445   1_544  S
Zr40        O260   2.464   1_554  S
Zr40         O46   2.392   1_545  S
Zr40        O496   2.385   1_544  S
Zr40        O279   2.400       .  S
Zr40        O757   2.387   1_554  S
O41        Zr985   2.358       .  S
O41       Zr1226   2.380       .  S
O41        Zr278   2.402   1_545  S
O41          H49   0.966       .  S
O42        Zr274   2.374       .  S
O42        Zr515   2.376       .  S
O43       Zr1461   2.363       .  S
O43        Zr754   2.390       .  S
O44       Zr1444   2.357       .  S
O44        Zr753   2.395   1_554  S
O44          H48   0.966       .  S
O45        Zr965   2.359       .  S
O45        Zr509   2.369       .  S
O45          H50   0.966       .  S
O46        Zr492   2.373       .  S
O46        Zr988   2.376   1_465  S
H51         O970   0.990       .  S
H52         O990   0.990       .  S
H53         O989   0.990       .  S
H54         O986   0.990       .  S
H55         O987   0.990       .  S
H56         O967   0.990       .  S
H57         O966   0.990       .  S
H58         O969   0.990       .  S
C63          C64   1.536       .  S
C63          C69   1.537       .  S
C63          C67   1.545       .  S
C63         C208   1.510       .  S
C64          H71   1.085       .  S
C64          C65   1.364       .  D
C65          C66   1.530       .  S
C65         C195   1.476       .  S
C66          C70   1.532       .  S
C66          C68   1.540       .  S
C66          H72   1.108       .  S
C67          H73   1.086       .  S
C67          C68   1.367       .  D
C68         C200   1.487       .  S
C69          H74   1.084       .  S
C69          C70   1.369       .  D
C70         C204   1.485       .  S
C75          C76   1.535       .  S
C75          C81   1.542       .  S
C75          C79   1.541       .  S
C75         C232   1.526       .  S
C76          H83   1.087       .  S
C76          C77   1.359       .  D
C77          C78   1.541       .  S
C77         C203   1.483       .  S
C78          C82   1.540       .  S
C78          C80   1.539       .  S
C78          H84   1.103       .  S
C79          H85   1.084       .  S
C79          C80   1.375       .  D
C80         C191   1.486       .  S
C81          H86   1.086       .  S
C81          C82   1.369       .  D
C82         C187   1.496       .  S
C87          C88   1.532       .  S
C87          C93   1.528       .  S
C87          C91   1.534       .  S
C87         C211   1.505       .  S
C88          H95   1.083       .  S
C88          C89   1.368       .  D
C89          C90   1.549       .  S
C89         C188   1.497       .  S
C90          C94   1.556       .  S
C90          C92   1.559       .  S
C90          H96   1.105       .  S
C91          H97   1.086       .  S
C91          C92   1.366       .  D
C92         C183   1.499       .  S
C93          H98   1.087       .  S
C93          C94   1.359       .  D
C94         C179   1.492       .  S
C99         C100   1.548       .  S
C99         C105   1.540       .  S
C99         C103   1.554       .  S
C99         C220   1.532       .  S
C100        H107   1.084       .  S
C100        C101   1.376       .  D
C101        C102   1.529       .  S
C101        C180   1.494       .  S
C102        C106   1.536       .  S
C102        C104   1.529       .  S
C102        H108   1.107       .  S
C103        H109   1.085       .  S
C103        C104   1.373       .  D
C104        C175   1.489       .  S
C105        H110   1.086       .  S
C105        C106   1.362       .  D
C106        C196   1.483       .  S
C111        C112   1.535       .  S
C111        C117   1.534       .  S
C111        C115   1.545       .  S
C111        C227   1.511       .  S
C112        H119   1.087       .  S
C112        C113   1.359       .  D
C113        C114   1.537       .  S
C113        C172   1.479       .  S
C114        C118   1.535       .  S
C114        C116   1.533       .  S
C114        H120   1.108       .  S
C115        H121   1.085       .  S
C115        C116   1.372       .  D
C116        C199   1.478       .  S
C117        H122   1.084       .  S
C117        C118   1.368       .  D
C118        C167   1.485       .  S
C123        C124   1.531       .  S
C123        C129   1.535       .  S
C123        C127   1.554       .  S
C123        C216   1.521       .  S
C124        H131   1.087       .  S
C124        C125   1.359       .  D
C125        C126   1.539       .  S
C125        C168   1.479       .  S
C126        C130   1.534       .  S
C126        C128   1.548       .  S
C126        H132   1.106       .  S
C127        H133   1.083       .  S
C127        C128   1.371       .  D
C128        C176   1.500       .  S
C129        H134   1.084       .  S
C129        C130   1.367       .  D
C130        C163   1.484       .  S
C135        C136   1.535       .  S
C135        C141   1.536       .  S
C135        C139   1.553       .  S
C135        C236   1.521       .  S
C136        H143   1.087       .  S
C136        C137   1.364       .  D
C137        C138   1.542       .  S
C137        C164   1.486       .  S
C138        C142   1.533       .  S
C138        C140   1.532       .  S
C138        H144   1.108       .  S
C139        H145   1.085       .  S
C139        C140   1.381       .  D
C140        C184   1.493       .  S
C141        H146   1.084       .  S
C141        C142   1.363       .  D
C142        C159   1.486       .  S
C147        C148   1.533       .  S
C147        C153   1.536       .  S
C147        C151   1.538       .  S
C147        C224   1.509       .  S
C148        H155   1.087       .  S
C148        C149   1.361       .  D
C149        C150   1.539       .  S
C149        C160   1.481       .  S
C150        C154   1.529       .  S
C150        C152   1.551       .  S
C150        H156   1.104       .  S
C151        H157   1.086       .  S
C151        C152   1.369       .  D
C152        C192   1.494       .  S
C153        H158   1.085       .  S
C153        C154   1.367       .  D
C154        C171   1.478       .  S
C159        H161   1.085       .  S
C159        C160   1.347       .  D
C160        H162   1.084       .  S
C163        H165   1.082       .  S
C163        C164   1.345       .  D
C164        H166   1.084       .  S
C167        H169   1.085       .  S
C167        C168   1.343       .  D
C168        H170   1.084       .  S
C171        H173   1.083       .  S
C171        C172   1.342       .  D
C172        H174   1.085       .  S
C175        H177   1.083       .  S
C175        C176   1.346       .  D
C176        H178   1.086       .  S
C179        H181   1.085       .  S
C179        C180   1.339       .  D
C180        H182   1.084       .  S
C183        H185   1.086       .  S
C183        C184   1.342       .  D
C184        H186   1.082       .  S
C187        H189   1.083       .  S
C187        C188   1.355       .  D
C188        H190   1.081       .  S
C191        H193   1.080       .  S
C191        C192   1.345       .  D
C192        H194   1.085       .  S
C195        H197   1.082       .  S
C195        C196   1.342       .  D
C196        H198   1.085       .  S
C199        H201   1.084       .  S
C199        C200   1.343       .  D
C200        H202   1.085       .  S
C203        H205   1.084       .  S
C203        C204   1.342       .  D
C204        H206   1.083       .  S
C207        H209   1.087       .  S
C207        C208   1.340       .  D
C208        H210   1.087       .  S
C211        H213   1.087       .  S
C211        C212   1.347       .  D
C212        H214   1.087       .  S
C215        H217   1.082       .  S
C215        C216   1.339       .  D
C216        H218   1.087       .  S
C219        H221   1.087       .  S
C219        C220   1.357       .  D
C220        H222   1.086       .  S
C223        H225   1.086       .  S
C223        C224   1.339       .  D
C224        H226   1.088       .  S
C227        H229   1.086       .  S
C227        C228   1.349       .  D
C228        H230   1.087       .  S
C231        H233   1.089       .  S
C231        C232   1.347       .  D
C232        H234   1.086       .  S
C235        H237   1.086       .  S
C235        C236   1.344       .  D
C236        H238   1.088       .  S
O239        C241   1.289       .  A
O239      Zr1203   2.447       .  S
O240        C241   1.286       .  A
O240       Zr277   2.421       .  S
C241        C461   1.472       .  S
O242        C244   1.285       .  A
O242       Zr254   2.434   1_455  S
O243        C244   1.293       .  A
O243       Zr754   2.450       .  S
C244        C450   1.484       .  S
O245        C247   1.281       .  A
O245      Zr1206   2.404       .  S
O246        C247   1.291       .  A
C247        C473   1.471       .  S
O248        C250   1.290       .  A
O248       Zr251   2.452       .  S
O249        C250   1.285       .  A
O249       Zr516   2.423   1_556  S
C250        C469   1.483       .  S
Zr251      O1191   2.419   1_455  S
Zr251       O252   2.434       .  S
Zr251       O253   2.436       .  S
Zr251       O971   2.375   1_456  S
Zr251       O281   2.361       .  S
Zr251      O1235   2.383   1_455  S
O252       H1247   0.990       .  S
O253       H1246   0.990       .  S
O253        H298   0.990       .  S
Zr254      O1197   2.423       .  S
Zr254      O1207   2.437       .  S
Zr254       O256   2.434       .  S
Zr254       O258   2.367   1_655  S
Zr254      O1209   2.367       .  S
Zr254      O1710   2.373       .  S
Zr254       O760   2.370   1_655  S
O255      Zr1206   2.437       .  S
O255       H1248   0.990       .  S
O255        H299   0.990       .  S
O256       H1241   0.990   1_655  S
O257       Zr965   2.362       .  S
O257      Zr1206   2.364       .  S
O258       Zr754   2.395       .  S
O258        H285   0.966       .  S
O259        C261   1.278       .  A
O259      Zr1223   2.392       .  S
O260        C261   1.295       .  A
C261        C445   1.468       .  S
O262        C264   1.291       .  A
O262       Zr274   2.452       .  S
O263        C264   1.280       .  A
O263       Zr515   2.402       .  S
C264        C453   1.469       .  S
O265        C267   1.286       .  A
O265      Zr1226   2.431       .  S
O266        C267   1.297       .  A
O266       Zr278   2.476   1_545  S
C267        C457   1.487       .  S
O268        C270   1.283       .  A
O268       Zr271   2.420       .  S
O269        C270   1.290       .  A
O269       Zr753   2.445   1_545  S
C270        C466   1.473       .  S
Zr271      O1211   2.423       .  S
Zr271       O272   2.438       .  S
Zr271       O273   2.435       .  S
Zr271      O1231   2.360       .  S
Zr271       O280   2.363       .  S
Zr271       O759   2.368   1_545  S
Zr271      O1709   2.368   1_545  S
O272       H1244   0.990       .  S
O272        H297   0.990       .  S
O273       H1245   0.990       .  S
Zr274      O1217   2.462       .  S
Zr274      O1227   2.434       .  S
Zr274       O276   2.435       .  S
Zr274       O993   2.373       .  S
Zr274      O1236   2.372   1_545  S
Zr274       O282   2.373       .  S
O275      Zr1226   2.434       .  S
O275       H1243   0.990       .  S
O276       H1242   0.990       .  S
O276        H300   0.990       .  S
Zr277       O501   2.420   1_556  S
Zr277       O745   2.462       .  S
Zr277       O756   2.379       .  S
Zr277       O520   2.393   1_556  S
Zr277       O283   2.388       .  S
Zr278       O719   2.450       .  S
Zr278       O487   2.473       .  S
Zr278       O734   2.389       .  S
Zr278       O519   2.394       .  S
Zr278       O284   2.393       .  S
O279      Zr1223   2.370   1_554  S
O279       Zr988   2.373   1_455  S
O279        H287   0.965       .  S
O280       Zr753   2.390   1_545  S
O281      Zr1699   2.363       .  S
O281       Zr516   2.373   1_556  S
O282      Zr1682   2.366   1_545  S
O282       Zr515   2.381       .  S
O282        H286   0.967       .  S
O283      Zr1203   2.382       .  S
O283       Zr747   2.359       .  S
O283        H288   0.965       .  S
O284       Zr730   2.364       .  S
O284      Zr1226   2.384   1_565  S
H289       O1208   0.990       .  S
H290       O1228   0.990   1_455  S
H291       O1227   0.990       .  S
H292       O1224   0.989       .  S
H293       O1225   0.990       .  S
H294       O1205   0.990       .  S
H295       O1204   0.989       .  S
H296       O1207   0.990   1_455  S
C301        C302   1.544       .  S
C301        C307   1.538       .  S
C301        C305   1.522       .  S
C301        C446   1.509       .  S
C302        H309   1.085       .  S
C302        C303   1.371       .  D
C303        C304   1.538       .  S
C303        C433   1.485       .  S
C304        C308   1.543       .  S
C304        C306   1.549       .  S
C304        H310   1.106       .  S
C305        H311   1.087       .  S
C305        C306   1.357       .  D
C306        C438   1.476       .  S
C307        H312   1.086       .  S
C307        C308   1.366       .  D
C308        C442   1.491       .  S
C313        C314   1.535       .  S
C313        C319   1.529       .  S
C313        C317   1.543       .  S
C313        C470   1.522       .  S
C314        H321   1.084       .  S
C314        C315   1.371       .  D
C315        C316   1.544       .  S
C315        C441   1.498       .  S
C316        C320   1.550       .  S
C316        C318   1.554       .  S
C316        H322   1.105       .  S
C317        H323   1.083       .  S
C317        C318   1.367       .  D
C318        C429   1.494       .  S
C319        H324   1.087       .  S
C319        C320   1.362       .  D
C320        C425   1.494       .  S
C325        C326   1.544       .  S
C325        C331   1.542       .  S
C325        C329   1.526       .  S
C325        C449   1.518       .  S
C326        H333   1.083       .  S
C326        C327   1.377       .  D
C327        C328   1.538       .  S
C327        C426   1.499       .  S
C328        C332   1.549       .  S
C328        C330   1.551       .  S
C328        H334   1.106       .  S
C329        H335   1.087       .  S
C329        C330   1.354       .  D
C330        C421   1.481       .  S
C331        H336   1.086       .  S
C331        C332   1.370       .  D
C332        C417   1.500       .  S
C337        C338   1.549       .  S
C337        C343   1.544       .  S
C337        C341   1.543       .  S
C337        C458   1.527       .  S
C338        H345   1.085       .  S
C338        C339   1.373       .  D
C339        C340   1.537       .  S
C339        C418   1.499       .  S
C340        C344   1.539       .  S
C340        C342   1.531       .  S
C340        H346   1.108       .  S
C341        H347   1.085       .  S
C341        C342   1.370       .  D
C342        C413   1.480       .  S
C343        H348   1.086       .  S
C343        C344   1.364       .  D
C344        C434   1.492       .  S
C349        C350   1.539       .  S
C349        C355   1.533       .  S
C349        C353   1.535       .  S
C349        C465   1.513       .  S
C350        H357   1.086       .  S
C350        C351   1.368       .  D
C351        C352   1.545       .  S
C351        C410   1.487       .  S
C352        C356   1.535       .  S
C352        C354   1.529       .  S
C352        H358   1.103       .  S
C353        H359   1.084       .  S
C353        C354   1.372       .  D
C354        C437   1.477       .  S
C355        H360   1.087       .  S
C355        C356   1.359       .  D
C356        C405   1.477       .  S
C361        C362   1.530       .  S
C361        C367   1.538       .  S
C361        C365   1.541       .  S
C361        C454   1.505       .  S
C362        H369   1.082       .  S
C362        C363   1.365       .  D
C363        C364   1.533       .  S
C363        C406   1.485       .  S
C364        C368   1.533       .  S
C364        C366   1.543       .  S
C364        H370   1.108       .  S
C365        H371   1.086       .  S
C365        C366   1.366       .  D
C366        C414   1.486       .  S
C367        H372   1.085       .  S
C367        C368   1.366       .  D
C368        C401   1.476       .  S
C373        C374   1.546       .  S
C373        C379   1.542       .  S
C373        C377   1.544       .  S
C373        C474   1.520       .  S
C374        H381   1.086       .  S
C374        C375   1.363       .  D
C375        C376   1.534       .  S
C375        C402   1.484       .  S
C376        C380   1.522       .  S
C376        C378   1.524       .  S
C376        H382   1.109       .  S
C377        H383   1.085       .  S
C377        C378   1.376       .  D
C378        C422   1.475       .  S
C379        H384   1.085       .  S
C379        C380   1.362       .  D
C380        C397   1.473       .  S
C385        C386   1.535       .  S
C385        C391   1.543       .  S
C385        C389   1.548       .  S
C385        C462   1.512       .  S
C386        H393   1.087       .  S
C386        C387   1.357       .  D
C387        C388   1.538       .  S
C387        C398   1.477       .  S
C388        C392   1.528       .  S
C388        C390   1.532       .  S
C388        H394   1.108       .  S
C389        H395   1.085       .  S
C389        C390   1.375       .  D
C390        C430   1.486       .  S
C391        H396   1.085       .  S
C391        C392   1.364       .  D
C392        C409   1.479       .  S
C397        H399   1.082       .  S
C397        C398   1.338       .  D
C398        H400   1.085       .  S
C401        H403   1.084       .  S
C401        C402   1.343       .  D
C402        H404   1.085       .  S
C405        H407   1.082       .  S
C405        C406   1.345       .  D
C406        H408   1.083       .  S
C409        H411   1.081       .  S
C409        C410   1.344       .  D
C410        H412   1.085       .  S
C413        H415   1.083       .  S
C413        C414   1.342       .  D
C414        H416   1.085       .  S
C417        H419   1.085       .  S
C417        C418   1.350       .  D
C418        H420   1.084       .  S
C421        H423   1.086       .  S
C421        C422   1.333       .  D
C422        H424   1.084       .  S
C425        H427   1.083       .  S
C425        C426   1.346       .  D
C426        H428   1.084       .  S
C429        H431   1.086       .  S
C429        C430   1.341       .  D
C430        H432   1.082       .  S
C433        H435   1.082       .  S
C433        C434   1.347       .  D
C434        H436   1.085       .  S
C437        H439   1.083       .  S
C437        C438   1.336       .  D
C438        H440   1.085       .  S
C441        H443   1.084       .  S
C441        C442   1.351       .  D
C442        H444   1.083       .  S
C445        H447   1.089       .  S
C445        C446   1.332       .  D
C446        H448   1.087       .  S
C449        H451   1.087       .  S
C449        C450   1.341       .  D
C450        H452   1.087       .  S
C453        H455   1.087       .  S
C453        C454   1.336       .  D
C454        H456   1.088       .  S
C457        H459   1.088       .  S
C457        C458   1.345       .  D
C458        H460   1.086       .  S
C461        H463   1.088       .  S
C461        C462   1.349       .  D
C462        H464   1.086       .  S
C465        H467   1.086       .  S
C465        C466   1.342       .  D
C466        H468   1.088       .  S
C469        H471   1.082       .  S
C469        C470   1.347       .  D
C470        H472   1.087       .  S
C473        H475   1.089       .  S
C473        C474   1.344       .  D
C474        H476   1.086       .  S
O477        C479   1.292       .  A
O477      Zr1441   2.462       .  S
O478        C479   1.279       .  A
O478       Zr515   2.394   1_565  S
C479        C699   1.463       .  S
O480        C482   1.281       .  A
O480       Zr492   2.408       .  S
O481        C482   1.298       .  A
C482        C688   1.483       .  S
O483        C485   1.287       .  A
O483      Zr1444   2.430       .  S
O484        C485   1.288       .  A
O484       Zr753   2.444   1_554  S
C485        C711   1.491       .  S
O486        C488   1.282       .  A
O486       Zr489   2.408       .  S
O487        C488   1.294       .  A
C488        C707   1.478       .  S
Zr489      O1429   2.437   1_455  S
Zr489       O490   2.434       .  S
Zr489       O491   2.437       .  S
Zr489      O1685   2.358   1_455  S
Zr489       O734   2.369       .  S
Zr489       O519   2.372       .  S
Zr489      O1473   2.354   1_455  S
O490       H1485   0.990       .  S
O491       H1484   0.990   1_455  S
O491        H536   0.990       .  S
Zr492      O1435   2.425   1_455  S
Zr492      O1445   2.436       .  S
Zr492       O494   2.435       .  S
Zr492       O496   2.365   1_554  S
Zr492      O1447   2.365   1_454  S
Zr492       O996   2.353   1_455  S
O493      Zr1444   2.435       .  S
O493       H1486   0.990       .  S
O493        H537   0.990       .  S
O494       H1479   0.990   1_455  S
O495      Zr1679   2.369       .  S
O495      Zr1444   2.363   1_556  S
O495       Zr753   2.376       .  S
O496       Zr727   2.362       .  S
O496        H523   0.965   1_556  S
O497        C499   1.290       .  A
O497      Zr1461   2.453       .  S
O498        C499   1.287       .  A
O498       Zr754   2.429       .  S
C499        C683   1.478       .  S
O500        C502   1.295       .  A
O500       Zr512   2.475       .  S
O501        C502   1.285       .  A
C502        C691   1.481       .  S
O503        C505   1.295       .  A
O503      Zr1464   2.483       .  S
O504        C505   1.283       .  A
O504       Zr516   2.415       .  S
C505        C695   1.481       .  S
O506        C508   1.289       .  A
O506       Zr509   2.446       .  S
O507        C508   1.288       .  A
C508        C704   1.478       .  S
Zr509      O1449   2.441       .  S
Zr509       O510   2.436       .  S
Zr509       O511   2.435       .  S
Zr509      O1469   2.368       .  S
Zr509       O518   2.372       .  S
Zr509       O995   2.371       .  S
O510       H1482   0.990       .  S
O510        H535   0.990       .  S
O511       H1483   0.990       .  S
Zr512      O1455   2.485       .  S
Zr512      O1465   2.433       .  S
Zr512       O514   2.434       .  S
Zr512       O756   2.377   1_554  S
Zr512      O1707   2.373       .  S
Zr512      O1474   2.374       .  S
Zr512       O520   2.377       .  S
O513      Zr1464   2.435       .  S
O513       H1481   0.990       .  S
O514       H1480   0.990       .  S
O514        H538   0.990       .  S
Zr515       O722   2.426   1_545  S
Zr515       O733   2.379   1_545  S
Zr515       O521   2.384       .  S
Zr516       O736   2.412   1_554  S
Zr516       O755   2.378       .  S
Zr516       O522   2.385       .  S
O517      Zr1461   2.364       .  S
O517      Zr1702   2.384   1_455  S
O517       Zr754   2.395       .  S
O517        H525   0.966       .  S
O518       Zr750   2.378       .  S
O519       Zr985   2.366   1_565  S
O520       Zr968   2.369       .  S
O520        H524   0.965       .  S
O521      Zr1441   2.371   1_545  S
O521        H526   0.967       .  S
O522      Zr1464   2.376       .  S
H527       O1446   0.990       .  S
H528       O1466   0.990   1_655  S
H529       O1465   0.990       .  S
H530       O1462   0.990       .  S
H531       O1463   0.990       .  S
H532       O1443   0.990       .  S
H533       O1442   0.990       .  S
H534       O1445   0.990       .  S
C539        C540   1.535       .  S
C539        C545   1.543       .  S
C539        C543   1.542       .  S
C539        C684   1.517       .  S
C540        H547   1.085       .  S
C540        C541   1.365       .  D
C541        C542   1.531       .  S
C541        C671   1.478       .  S
C542        C546   1.532       .  S
C542        C544   1.547       .  S
C542        H548   1.107       .  S
C543        H549   1.086       .  S
C543        C544   1.368       .  D
C544        C676   1.494       .  S
C545        H550   1.084       .  S
C545        C546   1.372       .  D
C546        C680   1.490       .  S
C551        C552   1.534       .  S
C551        C557   1.539       .  S
C551        C555   1.544       .  S
C551        C708   1.527       .  S
C552        H559   1.087       .  S
C552        C553   1.357       .  D
C553        C554   1.544       .  S
C553        C679   1.485       .  S
C554        C558   1.548       .  S
C554        C556   1.541       .  S
C554        H560   1.107       .  S
C555        H561   1.084       .  S
C555        C556   1.379       .  D
C556        C667   1.490       .  S
C557        H562   1.087       .  S
C557        C558   1.364       .  D
C558        C663   1.496       .  S
C563        C564   1.544       .  S
C563        C569   1.543       .  S
C563        C567   1.526       .  S
C563        C687   1.523       .  S
C564        H571   1.084       .  S
C564        C565   1.375       .  D
C565        C566   1.540       .  S
C565        C664   1.498       .  S
C566        C570   1.546       .  S
C566        C568   1.551       .  S
C566        H572   1.105       .  S
C567        H573   1.087       .  S
C567        C568   1.358       .  D
C568        C659   1.484       .  S
C569        H574   1.086       .  S
C569        C570   1.369       .  D
C570        C655   1.499       .  S
C575        C576   1.544       .  S
C575        C581   1.538       .  S
C575        C579   1.554       .  S
C575        C696   1.522       .  S
C576        H583   1.084       .  S
C576        C577   1.370       .  D
C577        C578   1.538       .  S
C577        C656   1.497       .  S
C578        C582   1.536       .  S
C578        C580   1.534       .  S
C578        H584   1.109       .  S
C579        H585   1.085       .  S
C579        C580   1.374       .  D
C580        C651   1.487       .  S
C581        H586   1.087       .  S
C581        C582   1.360       .  D
C582        C672   1.482       .  S
C587        C588   1.533       .  S
C587        C593   1.533       .  S
C587        C591   1.549       .  S
C587        C703   1.520       .  S
C588        H595   1.087       .  S
C588        C589   1.359       .  D
C589        C590   1.539       .  S
C589        C648   1.479       .  S
C590        C594   1.545       .  S
C590        C592   1.536       .  S
C590        H596   1.108       .  S
C591        H597   1.085       .  S
C591        C592   1.377       .  D
C592        C675   1.483       .  S
C593        H598   1.087       .  S
C593        C594   1.362       .  D
C594        C643   1.485       .  S
C599        C600   1.540       .  S
C599        C605   1.537       .  S
C599        C603   1.549       .  S
C599        C692   1.520       .  S
C600        H607   1.084       .  S
C600        C601   1.369       .  D
C601        C602   1.531       .  S
C601        C644   1.491       .  S
C602        C606   1.529       .  S
C602        C604   1.546       .  S
C602        H608   1.108       .  S
C603        H609   1.086       .  S
C603        C604   1.373       .  D
C604        C652   1.499       .  S
C605        H610   1.085       .  S
C605        C606   1.364       .  D
C606        C639   1.477       .  S
C611        C612   1.537       .  S
C611        C617   1.537       .  S
C611        C615   1.549       .  S
C611        C712   1.514       .  S
C612        H619   1.087       .  S
C612        C613   1.360       .  D
C613        C614   1.536       .  S
C613        C640   1.481       .  S
C614        C618   1.529       .  S
C614        C616   1.526       .  S
C614        H620   1.109       .  S
C615        H621   1.083       .  S
C615        C616   1.377       .  D
C616        C660   1.480       .  S
C617        H622   1.084       .  S
C617        C618   1.367       .  D
C618        C635   1.485       .  S
C623        C624   1.528       .  S
C623        C629   1.531       .  S
C623        C627   1.536       .  S
C623        C700   1.507       .  S
C624        H631   1.087       .  S
C624        C625   1.359       .  D
C625        C626   1.547       .  S
C625        C636   1.482       .  S
C626        C630   1.537       .  S
C626        C628   1.554       .  S
C626        H632   1.103       .  S
C627        H633   1.086       .  S
C627        C628   1.367       .  D
C628        C668   1.497       .  S
C629        H634   1.084       .  S
C629        C630   1.370       .  D
C630        C647   1.487       .  S
C635        H637   1.083       .  S
C635        C636   1.341       .  D
C636        H638   1.084       .  S
C639        H641   1.083       .  S
C639        C640   1.342       .  D
C640        H642   1.085       .  S
C643        H645   1.083       .  S
C643        C644   1.345       .  D
C644        H646   1.084       .  S
C647        H649   1.085       .  S
C647        C648   1.344       .  D
C648        H650   1.084       .  S
C651        H653   1.083       .  S
C651        C652   1.347       .  D
C652        H654   1.086       .  S
C655        H657   1.084       .  S
C655        C656   1.350       .  D
C656        H658   1.083       .  S
C659        H661   1.086       .  S
C659        C660   1.336       .  D
C660        H662   1.084       .  S
C663        H665   1.084       .  S
C663        C664   1.348       .  D
C664        H666   1.083       .  S
C667        H669   1.080       .  S
C667        C668   1.345       .  D
C668        H670   1.085       .  S
C671        H673   1.084       .  S
C671        C672   1.344       .  D
C672        H674   1.085       .  S
C675        H677   1.081       .  S
C675        C676   1.344       .  D
C676        H678   1.086       .  S
C679        H681   1.085       .  S
C679        C680   1.342       .  D
C680        H682   1.085       .  S
C683        H685   1.086       .  S
C683        C684   1.346       .  D
C684        H686   1.087       .  S
C687        H689   1.087       .  S
C687        C688   1.338       .  D
C688        H690   1.088       .  S
C691        H693   1.086       .  S
C691        C692   1.343       .  D
C692        H694   1.087       .  S
C695        H697   1.086       .  S
C695        C696   1.347       .  D
C696        H698   1.087       .  S
C699        H701   1.087       .  S
C699        C700   1.338       .  D
C700        H702   1.087       .  S
C703        H705   1.086       .  S
C703        C704   1.351       .  D
C704        H706   1.088       .  S
C707        H709   1.089       .  S
C707        C708   1.347       .  D
C708        H710   1.086       .  S
C711        H713   1.084       .  S
C711        C712   1.351       .  D
C712        H714   1.087       .  S
O715        C717   1.275       .  A
O715      Zr1679   2.379       .  S
O716        C717   1.291       .  A
O716       Zr753   2.448       .  S
C717        C937   1.457       .  S
O718        C720   1.282       .  A
O718       Zr730   2.417       .  S
O719        C720   1.290       .  A
C720        C926   1.472       .  S
O721        C723   1.287       .  A
O721      Zr1682   2.428       .  S
O722        C723   1.285       .  A
C723        C949   1.478       .  S
O724        C726   1.286       .  A
O724       Zr727   2.432       .  S
O725        C726   1.291       .  A
C726        C945   1.483       .  S
Zr727      O1667   2.403   1_455  S
Zr727       O728   2.435       .  S
Zr727       O729   2.435       .  S
Zr727      O1447   2.373   1_455  S
Zr727       O757   2.357   1_565  S
Zr727      O1711   2.379   1_455  S
O728       H1723   0.990       .  S
O729       H1722   0.990       .  S
O729        H774   0.990       .  S
Zr730      O1673   2.403   1_455  S
Zr730      O1683   2.437       .  S
Zr730       O732   2.434       .  S
Zr730       O734   2.360       .  S
Zr730      O1685   2.370   1_455  S
Zr730      O1234   2.369   1_455  S
O731      Zr1682   2.437       .  S
O731       H1724   0.990       .  S
O731        H775   0.990       .  S
O732       H1717   0.990   1_455  S
O733      Zr1441   2.373       .  S
O733      Zr1682   2.365       .  S
O734        H761   0.966       .  S
O735        C737   1.284       .  A
O735      Zr1699   2.409       .  S
O736        C737   1.282       .  A
C737        C921   1.464       .  S
O738        C740   1.289       .  A
O738       Zr750   2.446       .  S
O739        C740   1.286       .  A
C740        C929   1.474       .  S
O741        C743   1.285       .  A
O741      Zr1702   2.424   1_455  S
O742        C743   1.296       .  A
O742       Zr754   2.474       .  S
C743        C933   1.484       .  S
O744        C746   1.283       .  A
O744       Zr747   2.418       .  S
O745        C746   1.292       .  A
C746        C942   1.481       .  S
Zr747      O1687   2.400       .  S
Zr747       O748   2.437       .  S
Zr747       O749   2.436       .  S
Zr747      O1707   2.373   1_556  S
Zr747       O756   2.361       .  S
Zr747      O1233   2.370       .  S
O748       H1720   0.990       .  S
O748        H773   0.990       .  S
O749       H1721   0.990       .  S
Zr750      O1693   2.445       .  S
Zr750      O1703   2.434       .  S
Zr750       O752   2.435       .  S
Zr750      O1469   2.370       .  S
Zr750      O1712   2.378       .  S
Zr750       O758   2.372       .  S
O751      Zr1702   2.434   1_455  S
O751       H1719   0.990   1_455  S
O752       H1718   0.990       .  S
O752        H776   0.990       .  S
Zr753       O759   2.385       .  S
Zr754       O760   2.394       .  S
O755      Zr1699   2.358   1_554  S
O755      Zr1464   2.363       .  S
O755        H763   0.966       .  S
O757      Zr1223   2.375       .  S
O758      Zr1206   2.365       .  S
O758        H762   0.966       .  S
O759      Zr1679   2.372       .  S
O759        H764   0.965       .  S
O760      Zr1702   2.388   1_455  S
H765       O1684   0.990       .  S
H766       O1704   0.990       .  S
H767       O1703   0.990       .  S
H768       O1700   0.990       .  S
H769       O1701   0.990       .  S
H770       O1681   0.990       .  S
H771       O1680   0.990       .  S
H772       O1683   0.990       .  S
C777        C778   1.531       .  S
C777        C783   1.529       .  S
C777        C781   1.538       .  S
C777        C922   1.496       .  S
C778        H785   1.084       .  S
C778        C779   1.365       .  D
C779        C780   1.539       .  S
C779        C909   1.485       .  S
C780        C784   1.546       .  S
C780        C782   1.548       .  S
C780        H786   1.104       .  S
C781        H787   1.083       .  S
C781        C782   1.362       .  D
C782        C914   1.485       .  S
C783        H788   1.087       .  S
C783        C784   1.357       .  D
C784        C918   1.481       .  S
C789        C790   1.542       .  S
C789        C795   1.547       .  S
C789        C793   1.542       .  S
C789        C946   1.522       .  S
C790        H797   1.085       .  S
C790        C791   1.368       .  D
C791        C792   1.521       .  S
C791        C917   1.476       .  S
C792        C796   1.525       .  S
C792        C794   1.534       .  S
C792        H798   1.109       .  S
C793        H799   1.083       .  S
C793        C794   1.360       .  D
C794        C905   1.469       .  S
C795        H800   1.085       .  S
C795        C796   1.373       .  D
C796        C901   1.487       .  S
C801        C802   1.531       .  S
C801        C807   1.540       .  S
C801        C805   1.536       .  S
C801        C925   1.517       .  S
C802        H809   1.087       .  S
C802        C803   1.356       .  D
C803        C804   1.548       .  S
C803        C902   1.489       .  S
C804        C808   1.552       .  S
C804        C806   1.543       .  S
C804        H810   1.102       .  S
C805        H811   1.084       .  S
C805        C806   1.374       .  D
C806        C897   1.490       .  S
C807        H812   1.086       .  S
C807        C808   1.366       .  D
C808        C893   1.498       .  S
C813        C814   1.551       .  S
C813        C819   1.540       .  S
C813        C817   1.542       .  S
C813        C934   1.525       .  S
C814        H821   1.085       .  S
C814        C815   1.373       .  D
C815        C816   1.529       .  S
C815        C894   1.491       .  S
C816        C820   1.537       .  S
C816        C818   1.531       .  S
C816        H822   1.105       .  S
C817        H823   1.085       .  S
C817        C818   1.371       .  D
C818        C889   1.482       .  S
C819        H824   1.087       .  S
C819        C820   1.363       .  D
C820        C910   1.487       .  S
C825        C826   1.547       .  S
C825        C831   1.542       .  S
C825        C829   1.540       .  S
C825        C941   1.523       .  S
C826        H833   1.086       .  S
C826        C827   1.367       .  D
C827        C828   1.537       .  S
C827        C886   1.489       .  S
C828        C832   1.528       .  S
C828        C830   1.529       .  S
C828        H834   1.108       .  S
C829        H835   1.085       .  S
C829        C830   1.371       .  D
C830        C913   1.480       .  S
C831        H836   1.084       .  S
C831        C832   1.368       .  D
C832        C881   1.485       .  S
C837        C838   1.531       .  S
C837        C843   1.537       .  S
C837        C841   1.535       .  S
C837        C930   1.506       .  S
C838        H845   1.087       .  S
C838        C839   1.360       .  D
C839        C840   1.546       .  S
C839        C882   1.484       .  S
C840        C844   1.537       .  S
C840        C842   1.550       .  S
C840        H846   1.102       .  S
C841        H847   1.086       .  S
C841        C842   1.365       .  D
C842        C890   1.490       .  S
C843        H848   1.084       .  S
C843        C844   1.369       .  D
C844        C877   1.490       .  S
C849        C850   1.532       .  S
C849        C855   1.533       .  S
C849        C853   1.540       .  S
C849        C950   1.508       .  S
C850        H857   1.087       .  S
C850        C851   1.362       .  D
C851        C852   1.544       .  S
C851        C878   1.487       .  S
C852        C856   1.533       .  S
C852        C854   1.549       .  S
C852        H858   1.106       .  S
C853        H859   1.084       .  S
C853        C854   1.368       .  D
C854        C898   1.490       .  S
C855        H860   1.085       .  S
C855        C856   1.364       .  D
C856        C873   1.477       .  S
C861        C862   1.542       .  S
C861        C867   1.545       .  S
C861        C865   1.525       .  S
C861        C938   1.502       .  S
C862        H869   1.087       .  S
C862        C863   1.363       .  D
C863        C864   1.534       .  S
C863        C874   1.481       .  S
C864        C868   1.532       .  S
C864        C866   1.531       .  S
C864        H870   1.107       .  S
C865        H871   1.085       .  S
C865        C866   1.364       .  D
C866        C906   1.464       .  S
C867        H872   1.085       .  S
C867        C868   1.365       .  D
C868        C885   1.481       .  S
C873        H875   1.081       .  S
C873        C874   1.345       .  D
C874        H876   1.084       .  S
C877        H879   1.084       .  S
C877        C878   1.347       .  D
C878        H880   1.084       .  S
C881        H883   1.084       .  S
C881        C882   1.342       .  D
C882        H884   1.084       .  S
C885        H887   1.083       .  S
C885        C886   1.346       .  D
C886        H888   1.085       .  S
C889        H891   1.080       .  S
C889        C890   1.341       .  D
C890        H892   1.085       .  S
C893        H895   1.085       .  S
C893        C894   1.344       .  D
C894        H896   1.081       .  S
C897        H899   1.083       .  S
C897        C898   1.347       .  D
C898        H900   1.085       .  S
C901        H903   1.083       .  S
C901        C902   1.339       .  D
C902        H904   1.086       .  S
C905        H907   1.085       .  S
C905        C906   1.337       .  D
C906        H908   1.084       .  S
C909        H911   1.080       .  S
C909        C910   1.348       .  D
C910        H912   1.083       .  S
C913        H915   1.082       .  S
C913        C914   1.338       .  D
C914        H916   1.085       .  S
C917        H919   1.084       .  S
C917        C918   1.336       .  D
C918        H920   1.086       .  S
C921        H923   1.081       .  S
C921        C922   1.343       .  D
C922        H924   1.088       .  S
C925        H927   1.086       .  S
C925        C926   1.344       .  D
C926        H928   1.089       .  S
C929        H931   1.087       .  S
C929        C930   1.345       .  D
C930        H932   1.087       .  S
C933        H935   1.088       .  S
C933        C934   1.345       .  D
C934        H936   1.086       .  S
C937        H939   1.089       .  S
C937        C938   1.331       .  D
C938        H940   1.087       .  S
C941        H943   1.086       .  S
C941        C942   1.344       .  D
C942        H944   1.088       .  S
C945        H947   1.081       .  S
C945        C946   1.355       .  D
C946        H948   1.087       .  S
C949        H951   1.083       .  S
C949        C950   1.346       .  D
C950        H952   1.087       .  S
O953        C955   1.292       .  A
O954        C955   1.279       .  A
O954       Zr991   2.397       .  S
C955       C1175   1.467       .  S
O956        C958   1.288       .  A
O956       Zr968   2.444       .  S
O957        C958   1.294       .  A
O957      Zr1468   2.463       .  S
C958       C1164   1.491       .  S
O959        C961   1.296       .  A
O960        C961   1.284       .  A
O960      Zr1229   2.419   1_554  S
C961       C1187   1.491       .  S
O962        C964   1.287       .  A
O962       Zr965   2.435       .  S
O963        C964   1.290       .  A
O963      Zr1706   2.444       .  S
C964       C1183   1.476       .  S
Zr965       O966   2.434       .  S
Zr965       O967   2.436       .  S
Zr965      O1210   2.369       .  S
Zr965       O995   2.375       .  S
O967       H1012   0.990       .  S
Zr968       O970   2.434       .  S
Zr968       O972   2.377   1_554  S
Zr968      O1474   2.379       .  S
O969       H1013   0.990   1_655  S
O971      Zr1229   2.382   1_554  S
O972      Zr1203   2.375       .  S
O972      Zr1468   2.395   1_556  S
O972        H999   0.965       .  S
O973        C975   1.287       .  A
O974        C975   1.285       .  A
O974      Zr1230   2.417       .  S
C975       C1159   1.471       .  S
O976        C978   1.298       .  A
O976       Zr988   2.483       .  S
O977        C978   1.279       .  A
O977      Zr1705   2.390   1_544  S
C978       C1167   1.466       .  S
O979        C981   1.298       .  A
O980        C981   1.289       .  A
O980       Zr992   2.441   1_544  S
C981       C1171   1.495       .  S
O982        C984   1.287       .  A
O982       Zr985   2.434   1_655  S
O983        C984   1.291       .  A
O983      Zr1467   2.448   1_545  S
C984       C1180   1.476       .  S
Zr985       O986   2.435       .  S
Zr985       O987   2.433       .  S
Zr985       O994   2.376   1_455  S
Zr985      O1473   2.379   1_445  S
O986       H1011   0.990   1_455  S
Zr988       O990   2.434       .  S
Zr988      O1232   2.376   1_554  S
Zr988       O996   2.373   1_545  S
O990       H1014   0.990       .  S
Zr991      O1198   2.439       .  S
Zr991      O1691   2.404       .  S
Zr991      O1459   2.436       .  S
Zr991      O1209   2.381       .  S
Zr991      O1470   2.379       .  S
Zr991      O1710   2.383       .  S
Zr991       O997   2.383       .  S
Zr992      O1433   2.403   1_556  S
Zr992      O1677   2.467       .  S
Zr992      O1212   2.393   1_565  S
Zr992      O1448   2.373       .  S
Zr992      O1231   2.393   1_565  S
Zr992      O1709   2.378       .  S
Zr992       O998   2.390   1_556  S
O993      Zr1230   2.388       .  S
O993       H1001   0.966       .  S
O994      Zr1226   2.367   1_655  S
O994      Zr1467   2.396   1_545  S
O995      Zr1706   2.393       .  S
O996      Zr1705   2.397   1_554  S
O996       H1000   0.965       .  S
O997      Zr1461   2.378   1_655  S
O997       H1002   0.967       .  S
O998      Zr1444   2.377       .  S
C1015      C1016   1.536       .  S
C1015      C1021   1.540       .  S
C1015      C1019   1.543       .  S
C1015      C1160   1.514       .  S
C1016      H1023   1.085       .  S
C1016      C1017   1.366       .  D
C1017      C1018   1.533       .  S
C1017      C1147   1.479       .  S
C1018      C1022   1.534       .  S
C1018      C1020   1.544       .  S
C1018      H1024   1.109       .  S
C1019      H1025   1.082       .  S
C1019      C1020   1.358       .  D
C1020      C1152   1.483       .  S
C1021      H1026   1.084       .  S
C1021      C1022   1.372       .  D
C1022      C1156   1.492       .  S
C1027      C1028   1.533       .  S
C1027      C1033   1.536       .  S
C1027      C1031   1.540       .  S
C1027      C1184   1.519       .  S
C1028      H1035   1.087       .  S
C1028      C1029   1.360       .  D
C1029      C1030   1.546       .  S
C1029      C1155   1.487       .  S
C1030      C1034   1.551       .  S
C1030      C1032   1.544       .  S
C1030      H1036   1.106       .  S
C1031      H1037   1.084       .  S
C1031      C1032   1.374       .  D
C1032      C1143   1.487       .  S
C1033      H1038   1.087       .  S
C1033      C1034   1.365       .  D
C1034      C1139   1.499       .  S
C1039      C1040   1.544       .  S
C1039      C1045   1.539       .  S
C1039      C1043   1.537       .  S
C1039      C1163   1.529       .  S
C1040      H1047   1.084       .  S
C1040      C1041   1.376       .  D
C1041      C1042   1.542       .  S
C1041      C1140   1.500       .  S
C1042      C1046   1.552       .  S
C1042      C1044   1.552       .  S
C1042      H1048   1.103       .  S
C1043      H1049   1.086       .  S
C1043      C1044   1.365       .  D
C1044      C1135   1.497       .  S
C1045      H1050   1.086       .  S
C1045      C1046   1.366       .  D
C1046      C1131   1.503       .  S
C1051      C1052   1.554       .  S
C1051      C1057   1.536       .  S
C1051      C1055   1.560       .  S
C1051      C1172   1.535       .  S
C1052      H1059   1.085       .  S
C1052      C1053   1.373       .  D
C1053      C1054   1.530       .  S
C1053      C1132   1.499       .  S
C1054      C1058   1.537       .  S
C1054      C1056   1.531       .  S
C1054      H1060   1.108       .  S
C1055      H1061   1.085       .  S
C1055      C1056   1.379       .  D
C1056      C1127   1.494       .  S
C1057      H1062   1.087       .  S
C1057      C1058   1.360       .  D
C1058      C1148   1.483       .  S
C1063      C1064   1.539       .  S
C1063      C1069   1.542       .  S
C1063      C1067   1.547       .  S
C1063      C1179   1.517       .  S
C1064      H1071   1.087       .  S
C1064      C1065   1.358       .  D
C1065      C1066   1.535       .  S
C1065      C1124   1.481       .  S
C1066      C1070   1.530       .  S
C1066      C1068   1.525       .  S
C1066      H1072   1.108       .  S
C1067      H1073   1.085       .  S
C1067      C1068   1.374       .  D
C1068      C1151   1.475       .  S
C1069      H1074   1.085       .  S
C1069      C1070   1.369       .  D
C1070      C1119   1.485       .  S
C1075      C1076   1.531       .  S
C1075      C1081   1.529       .  S
C1075      C1079   1.543       .  S
C1075      C1168   1.508       .  S
C1076      H1083   1.087       .  S
C1076      C1077   1.358       .  D
C1077      C1078   1.546       .  S
C1077      C1120   1.482       .  S
C1078      C1082   1.533       .  S
C1078      C1080   1.557       .  S
C1078      H1084   1.108       .  S
C1079      H1085   1.086       .  S
C1079      C1080   1.374       .  D
C1080      C1128   1.504       .  S
C1081      H1086   1.084       .  S
C1081      C1082   1.364       .  D
C1082      C1115   1.483       .  S
C1087      C1088   1.530       .  S
C1087      C1093   1.530       .  S
C1087      C1091   1.556       .  S
C1087      C1188   1.519       .  S
C1088      H1095   1.087       .  S
C1088      C1089   1.359       .  D
C1089      C1090   1.533       .  S
C1089      C1116   1.476       .  S
C1090      C1094   1.533       .  S
C1090      C1092   1.533       .  S
C1090      H1096   1.109       .  S
C1091      H1097   1.084       .  S
C1091      C1092   1.381       .  D
C1092      C1136   1.489       .  S
C1093      H1098   1.084       .  S
C1093      C1094   1.367       .  D
C1094      C1111   1.482       .  S
C1099      C1100   1.531       .  S
C1099      C1105   1.535       .  S
C1099      C1103   1.543       .  S
C1099      C1176   1.509       .  S
C1100      H1107   1.087       .  S
C1100      C1101   1.358       .  D
C1101      C1102   1.537       .  S
C1101      C1112   1.476       .  S
C1102      C1106   1.532       .  S
C1102      C1104   1.545       .  S
C1102      H1108   1.102       .  S
C1103      H1109   1.086       .  S
C1103      C1104   1.370       .  D
C1104      C1144   1.495       .  S
C1105      H1110   1.085       .  S
C1105      C1106   1.367       .  D
C1106      C1123   1.476       .  S
C1111      H1113   1.083       .  S
C1111      C1112   1.342       .  D
C1112      H1114   1.083       .  S
C1115      H1117   1.083       .  S
C1115      C1116   1.345       .  D
C1116      H1118   1.084       .  S
C1119      H1121   1.086       .  S
C1119      C1120   1.341       .  D
C1120      H1122   1.085       .  S
C1123      H1125   1.082       .  S
C1123      C1124   1.342       .  D
C1124      H1126   1.085       .  S
C1127      H1129   1.083       .  S
C1127      C1128   1.346       .  D
C1128      H1130   1.086       .  S
C1131      H1133   1.085       .  S
C1131      C1132   1.347       .  D
C1132      H1134   1.081       .  S
C1135      H1137   1.086       .  S
C1135      C1136   1.342       .  D
C1136      H1138   1.083       .  S
C1139      H1141   1.084       .  S
C1139      C1140   1.348       .  D
C1140      H1142   1.083       .  S
C1143      H1145   1.080       .  S
C1143      C1144   1.349       .  D
C1144      H1146   1.085       .  S
C1147      H1149   1.083       .  S
C1147      C1148   1.344       .  D
C1148      H1150   1.085       .  S
C1151      H1153   1.084       .  S
C1151      C1152   1.336       .  D
C1152      H1154   1.086       .  S
C1155      H1157   1.084       .  S
C1155      C1156   1.344       .  D
C1156      H1158   1.085       .  S
C1159      H1161   1.080       .  S
C1159      C1160   1.347       .  D
C1160      H1162   1.087       .  S
C1163      H1165   1.086       .  S
C1163      C1164   1.347       .  D
C1164      H1166   1.087       .  S
C1167      H1169   1.086       .  S
C1167      C1168   1.332       .  D
C1168      H1170   1.088       .  S
C1171      H1173   1.086       .  S
C1171      C1172   1.353       .  D
C1172      H1174   1.087       .  S
C1175      H1177   1.087       .  S
C1175      C1176   1.340       .  D
C1176      H1178   1.087       .  S
C1179      H1181   1.086       .  S
C1179      C1180   1.346       .  D
C1180      H1182   1.088       .  S
C1183      H1185   1.088       .  S
C1183      C1184   1.347       .  D
C1184      H1186   1.086       .  S
C1187      H1189   1.084       .  S
C1187      C1188   1.342       .  D
C1188      H1190   1.088       .  S
O1191      C1193   1.283       .  A
O1192      C1193   1.290       .  A
O1192     Zr1229   2.441       .  S
C1193      C1413   1.471       .  S
O1194      C1196   1.281       .  A
O1194     Zr1206   2.410       .  S
O1195      C1196   1.289       .  A
O1195     Zr1706   2.441       .  S
C1196      C1402   1.465       .  S
O1197      C1199   1.286       .  A
O1198      C1199   1.288       .  A
C1199      C1425   1.481       .  S
O1200      C1202   1.293       .  A
O1200     Zr1203   2.464       .  S
O1201      C1202   1.287       .  A
O1201     Zr1468   2.428   1_556  S
C1202      C1421   1.486       .  S
Zr1203     O1204   2.434       .  S
Zr1203     O1205   2.438       .  S
Zr1203     O1233   2.369       .  S
O1205      H1250   0.990       .  S
Zr1206     O1208   2.434       .  S
Zr1206     O1210   2.360       .  S
Zr1206     O1712   2.368       .  S
O1207      H1251   0.990       .  S
O1210     Zr1706   2.388       .  S
O1210      H1237   0.966       .  S
O1211      C1213   1.287       .  A
O1212      C1213   1.279       .  A
C1213      C1397   1.452       .  S
O1214      C1216   1.294       .  A
O1214     Zr1226   2.468   1_655  S
O1215      C1216   1.283       .  A
O1215     Zr1467   2.409   1_545  S
C1216      C1405   1.482       .  S
O1217      C1219   1.292       .  A
O1218      C1219   1.293       .  A
O1218     Zr1230   2.463       .  S
C1219      C1409   1.498       .  S
O1220      C1222   1.282       .  A
O1220     Zr1223   2.417   1_655  S
O1221      C1222   1.296       .  A
O1221     Zr1705   2.484   1_545  S
C1222      C1418   1.491       .  S
Zr1223     O1224   2.438       .  S
Zr1223     O1225   2.435       .  S
Zr1223     O1232   2.355   1_455  S
Zr1223     O1711   2.361   1_445  S
O1224      H1249   0.990       .  S
Zr1226     O1228   2.435   1_455  S
Zr1226     O1234   2.360   1_445  S
O1228      H1252   0.990       .  S
Zr1229     O1453   2.405   1_556  S
Zr1229     O1697   2.449       .  S
Zr1229     O1708   2.386   1_556  S
Zr1229     O1472   2.395   1_556  S
Zr1229     O1235   2.385       .  S
Zr1230     O1671   2.433   1_545  S
Zr1230     O1439   2.438   1_545  S
Zr1230     O1686   2.389   1_545  S
Zr1230     O1471   2.390       .  S
Zr1230     O1236   2.381   1_545  S
O1231      H1239   0.966       .  S
O1232     Zr1705   2.389   1_545  S
O1233     Zr1468   2.391   1_556  S
O1234     Zr1467   2.389       .  S
O1234      H1238   0.966       .  S
O1235     Zr1699   2.367   1_655  S
O1235      H1240   0.965       .  S
O1236     Zr1682   2.376       .  S
C1253      C1254   1.534       .  S
C1253      C1259   1.523       .  S
C1253      C1257   1.533       .  S
C1253      C1398   1.484       .  S
C1254      H1261   1.084       .  S
C1254      C1255   1.366       .  D
C1255      C1256   1.541       .  S
C1255      C1385   1.487       .  S
C1256      C1260   1.547       .  S
C1256      C1258   1.550       .  S
C1256      H1262   1.105       .  S
C1257      H1263   1.086       .  S
C1257      C1258   1.362       .  D
C1258      C1390   1.483       .  S
C1259      H1264   1.087       .  S
C1259      C1260   1.353       .  D
C1260      C1394   1.476       .  S
C1265      C1266   1.538       .  S
C1265      C1271   1.543       .  S
C1265      C1269   1.551       .  S
C1265      C1422   1.527       .  S
C1266      H1273   1.085       .  S
C1266      C1267   1.368       .  D
C1267      C1268   1.520       .  S
C1267      C1393   1.477       .  S
C1268      C1272   1.525       .  S
C1268      C1270   1.536       .  S
C1268      H1274   1.109       .  S
C1269      H1275   1.083       .  S
C1269      C1270   1.367       .  D
C1270      C1381   1.483       .  S
C1271      H1276   1.084       .  S
C1271      C1272   1.373       .  D
C1272      C1377   1.487       .  S
C1277      C1278   1.532       .  S
C1277      C1283   1.536       .  S
C1277      C1281   1.532       .  S
C1277      C1401   1.509       .  S
C1278      H1285   1.087       .  S
C1278      C1279   1.355       .  D
C1279      C1280   1.544       .  S
C1279      C1378   1.482       .  S
C1280      C1284   1.553       .  S
C1280      C1282   1.541       .  S
C1280      H1286   1.104       .  S
C1281      H1287   1.084       .  S
C1281      C1282   1.372       .  D
C1282      C1373   1.483       .  S
C1283      H1288   1.086       .  S
C1283      C1284   1.365       .  D
C1284      C1369   1.494       .  S
C1289      C1290   1.546       .  S
C1289      C1295   1.542       .  S
C1289      C1293   1.554       .  S
C1289      C1410   1.537       .  S
C1290      H1297   1.084       .  S
C1290      C1291   1.372       .  D
C1291      C1292   1.530       .  S
C1291      C1370   1.490       .  S
C1292      C1296   1.536       .  S
C1292      C1294   1.531       .  S
C1292      H1298   1.105       .  S
C1293      H1299   1.085       .  S
C1293      C1294   1.376       .  D
C1294      C1365   1.493       .  S
C1295      H1300   1.086       .  S
C1295      C1296   1.366       .  D
C1296      C1386   1.491       .  S
C1301      C1302   1.549       .  S
C1301      C1307   1.549       .  S
C1301      C1305   1.542       .  S
C1301      C1417   1.534       .  S
C1302      H1309   1.086       .  S
C1302      C1303   1.371       .  D
C1303      C1304   1.539       .  S
C1303      C1362   1.499       .  S
C1304      C1308   1.526       .  S
C1304      C1306   1.527       .  S
C1304      H1310   1.107       .  S
C1305      H1311   1.085       .  S
C1305      C1306   1.370       .  D
C1306      C1389   1.475       .  S
C1307      H1312   1.084       .  S
C1307      C1308   1.371       .  D
C1308      C1357   1.491       .  S
C1313      C1314   1.530       .  S
C1313      C1319   1.533       .  S
C1313      C1317   1.549       .  S
C1313      C1406   1.520       .  S
C1314      H1321   1.087       .  S
C1314      C1315   1.359       .  D
C1315      C1316   1.547       .  S
C1315      C1358   1.488       .  S
C1316      C1320   1.540       .  S
C1316      C1318   1.553       .  S
C1316      H1322   1.105       .  S
C1317      H1323   1.083       .  S
C1317      C1318   1.371       .  D
C1318      C1366   1.502       .  S
C1319      H1324   1.084       .  S
C1319      C1320   1.369       .  D
C1320      C1353   1.491       .  S
C1325      C1326   1.533       .  S
C1325      C1331   1.537       .  S
C1325      C1329   1.537       .  S
C1325      C1426   1.511       .  S
C1326      H1333   1.087       .  S
C1326      C1327   1.363       .  D
C1327      C1328   1.542       .  S
C1327      C1354   1.487       .  S
C1328      C1332   1.536       .  S
C1328      C1330   1.545       .  S
C1328      H1334   1.105       .  S
C1329      H1335   1.084       .  S
C1329      C1330   1.365       .  D
C1330      C1374   1.482       .  S
C1331      H1336   1.084       .  S
C1331      C1332   1.369       .  D
C1332      C1349   1.486       .  S
C1337      C1338   1.543       .  S
C1337      C1343   1.546       .  S
C1337      C1341   1.536       .  S
C1337      C1414   1.511       .  S
C1338      H1345   1.087       .  S
C1338      C1339   1.363       .  D
C1339      C1340   1.536       .  S
C1339      C1350   1.488       .  S
C1340      C1344   1.537       .  S
C1340      C1342   1.535       .  S
C1340      H1346   1.106       .  S
C1341      H1347   1.085       .  S
C1341      C1342   1.365       .  D
C1342      C1382   1.473       .  S
C1343      H1348   1.085       .  S
C1343      C1344   1.367       .  D
C1344      C1361   1.489       .  S
C1349      H1351   1.080       .  S
C1349      C1350   1.348       .  D
C1350      H1352   1.083       .  S
C1353      H1355   1.083       .  S
C1353      C1354   1.348       .  D
C1354      H1356   1.084       .  S
C1357      H1359   1.085       .  S
C1357      C1358   1.341       .  D
C1358      H1360   1.084       .  S
C1361      H1363   1.081       .  S
C1361      C1362   1.351       .  D
C1362      H1364   1.085       .  S
C1365      H1367   1.082       .  S
C1365      C1366   1.345       .  D
C1366      H1368   1.086       .  S
C1369      H1371   1.085       .  S
C1369      C1370   1.343       .  D
C1370      H1372   1.081       .  S
C1373      H1375   1.083       .  S
C1373      C1374   1.344       .  D
C1374      H1376   1.084       .  S
C1377      H1379   1.085       .  S
C1377      C1378   1.338       .  D
C1378      H1380   1.084       .  S
C1381      H1383   1.085       .  S
C1381      C1382   1.342       .  D
C1382      H1384   1.084       .  S
C1385      H1387   1.080       .  S
C1385      C1386   1.350       .  D
C1386      H1388   1.084       .  S
C1389      H1391   1.083       .  S
C1389      C1390   1.337       .  D
C1390      H1392   1.086       .  S
C1393      H1395   1.084       .  S
C1393      C1394   1.334       .  D
C1394      H1396   1.085       .  S
C1397      H1399   1.086       .  S
C1397      C1398   1.334       .  D
C1398      H1400   1.089       .  S
C1401      H1403   1.086       .  S
C1401      C1402   1.340       .  D
C1402      H1404   1.089       .  S
C1405      H1407   1.082       .  S
C1405      C1406   1.343       .  D
C1406      H1408   1.087       .  S
C1409      H1411   1.087       .  S
C1409      C1410   1.356       .  D
C1410      H1412   1.086       .  S
C1413      H1415   1.088       .  S
C1413      C1414   1.340       .  D
C1414      H1416   1.086       .  S
C1417      H1419   1.086       .  S
C1417      C1418   1.347       .  D
C1418      H1420   1.088       .  S
C1421      H1423   1.081       .  S
C1421      C1422   1.349       .  D
C1422      H1424   1.087       .  S
C1425      H1427   1.082       .  S
C1425      C1426   1.350       .  D
C1426      H1428   1.087       .  S
O1429      C1431   1.286       .  A
O1430      C1431   1.286       .  A
O1430     Zr1467   2.425       .  S
C1431      C1651   1.471       .  S
O1432      C1434   1.281       .  A
O1432     Zr1444   2.413       .  S
O1433      C1434   1.285       .  A
C1434      C1640   1.456       .  S
O1435      C1437   1.285       .  A
O1436      C1437   1.291       .  A
O1436     Zr1705   2.459   1_554  S
C1437      C1663   1.479       .  S
O1438      C1440   1.291       .  A
O1438     Zr1441   2.457       .  S
O1439      C1440   1.289       .  A
C1440      C1659   1.484       .  S
Zr1441     O1442   2.434       .  S
Zr1441     O1443   2.435       .  S
Zr1441     O1686   2.375       .  S
Zr1441     O1471   2.373   1_565  S
O1443      H1488   0.990       .  S
Zr1444     O1446   2.434       .  S
Zr1444     O1448   2.371   1_554  S
O1445      H1489   0.990       .  S
O1447     Zr1705   2.387       .  S
O1448     Zr1679   2.358       .  S
O1448      H1475   0.966       .  S
O1449      C1451   1.289       .  A
O1450      C1451   1.283       .  A
O1450     Zr1706   2.411       .  S
C1451      C1635   1.464       .  S
O1452      C1454   1.293       .  A
O1452     Zr1464   2.462   1_655  S
O1453      C1454   1.281       .  A
C1454      C1643   1.463       .  S
O1455      C1457   1.297       .  A
O1456      C1457   1.290       .  A
O1456     Zr1468   2.447       .  S
C1457      C1647   1.502       .  S
O1458      C1460   1.285       .  A
O1458     Zr1461   2.430   1_655  S
O1459      C1460   1.289       .  A
C1460      C1656   1.474       .  S
Zr1461     O1462   2.435       .  S
Zr1461     O1463   2.435       .  S
Zr1461     O1470   2.380   1_455  S
O1462      H1487   0.990       .  S
Zr1464     O1466   2.435       .  S
Zr1464     O1708   2.379   1_455  S
Zr1464     O1472   2.382   1_455  S
O1466      H1490   0.990   1_455  S
Zr1467     O1674   2.473       .  S
Zr1467     O1685   2.380       .  S
Zr1467     O1473   2.393       .  S
Zr1468     O1688   2.454   1_554  S
Zr1468     O1707   2.390       .  S
Zr1468     O1474   2.393       .  S
O1469     Zr1706   2.393       .  S
O1469      H1477   0.966       .  S
O1470     Zr1702   2.362       .  S
O1472      H1476   0.965       .  S
O1473      H1478   0.968       .  S
C1491      C1492   1.537       .  S
C1491      C1497   1.538       .  S
C1491      C1495   1.539       .  S
C1491      C1636   1.501       .  S
C1492      H1499   1.085       .  S
C1492      C1493   1.363       .  D
C1493      C1494   1.530       .  S
C1493      C1623   1.476       .  S
C1494      C1498   1.531       .  S
C1494      C1496   1.541       .  S
C1494      H1500   1.109       .  S
C1495      H1501   1.086       .  S
C1495      C1496   1.362       .  D
C1496      C1628   1.478       .  S
C1497      H1502   1.085       .  S
C1497      C1498   1.368       .  D
C1498      C1632   1.483       .  S
C1503      C1504   1.531       .  S
C1503      C1509   1.546       .  S
C1503      C1507   1.538       .  S
C1503      C1660   1.522       .  S
C1504      H1511   1.087       .  S
C1504      C1505   1.362       .  D
C1505      C1506   1.544       .  S
C1505      C1631   1.484       .  S
C1506      C1510   1.531       .  S
C1506      C1508   1.547       .  S
C1506      H1512   1.105       .  S
C1507      H1513   1.086       .  S
C1507      C1508   1.366       .  D
C1508      C1619   1.488       .  S
C1509      H1514   1.084       .  S
C1509      C1510   1.378       .  D
C1510      C1615   1.500       .  S
C1515      C1516   1.523       .  S
C1515      C1521   1.525       .  S
C1515      C1519   1.517       .  S
C1515      C1639   1.490       .  S
C1516      H1523   1.087       .  S
C1516      C1517   1.359       .  D
C1517      C1518   1.560       .  S
C1517      C1616   1.490       .  S
C1518      C1522   1.565       .  S
C1518      C1520   1.565       .  S
C1518      H1524   1.107       .  S
C1519      H1525   1.087       .  S
C1519      C1520   1.358       .  D
C1520      C1611   1.482       .  S
C1521      H1526   1.087       .  S
C1521      C1522   1.363       .  D
C1522      C1607   1.497       .  S
C1527      C1528   1.549       .  S
C1527      C1533   1.539       .  S
C1527      C1531   1.558       .  S
C1527      C1648   1.539       .  S
C1528      H1535   1.084       .  S
C1528      C1529   1.377       .  D
C1529      C1530   1.529       .  S
C1529      C1608   1.501       .  S
C1530      C1534   1.537       .  S
C1530      C1532   1.530       .  S
C1530      H1536   1.107       .  S
C1531      H1537   1.085       .  S
C1531      C1532   1.376       .  D
C1532      C1603   1.493       .  S
C1533      H1538   1.086       .  S
C1533      C1534   1.362       .  D
C1534      C1624   1.483       .  S
C1539      C1540   1.541       .  S
C1539      C1545   1.541       .  S
C1539      C1543   1.538       .  S
C1539      C1655   1.510       .  S
C1540      H1547   1.086       .  S
C1540      C1541   1.364       .  D
C1541      C1542   1.539       .  S
C1541      C1600   1.485       .  S
C1542      C1546   1.533       .  S
C1542      C1544   1.529       .  S
C1542      H1548   1.107       .  S
C1543      H1549   1.085       .  S
C1543      C1544   1.365       .  D
C1544      C1627   1.471       .  S
C1545      H1550   1.084       .  S
C1545      C1546   1.370       .  D
C1546      C1595   1.490       .  S
C1551      C1552   1.532       .  S
C1551      C1557   1.530       .  S
C1551      C1555   1.542       .  S
C1551      C1644   1.506       .  S
C1552      H1559   1.087       .  S
C1552      C1553   1.360       .  D
C1553      C1554   1.545       .  S
C1553      C1596   1.487       .  S
C1554      C1558   1.536       .  S
C1554      C1556   1.556       .  S
C1554      H1560   1.103       .  S
C1555      H1561   1.086       .  S
C1555      C1556   1.371       .  D
C1556      C1604   1.504       .  S
C1557      H1562   1.084       .  S
C1557      C1558   1.364       .  D
C1558      C1591   1.479       .  S
C1563      C1564   1.540       .  S
C1563      C1569   1.541       .  S
C1563      C1567   1.546       .  S
C1563      C1664   1.525       .  S
C1564      H1571   1.087       .  S
C1564      C1565   1.363       .  D
C1565      C1566   1.535       .  S
C1565      C1592   1.483       .  S
C1566      C1570   1.527       .  S
C1566      C1568   1.525       .  S
C1566      H1572   1.106       .  S
C1567      H1573   1.084       .  S
C1567      C1568   1.381       .  D
C1568      C1612   1.486       .  S
C1569      H1574   1.086       .  S
C1569      C1570   1.363       .  D
C1570      C1587   1.473       .  S
C1575      C1576   1.541       .  S
C1575      C1581   1.543       .  S
C1575      C1579   1.542       .  S
C1575      C1652   1.511       .  S
C1576      H1583   1.086       .  S
C1576      C1577   1.359       .  D
C1577      C1578   1.534       .  S
C1577      C1588   1.479       .  S
C1578      C1582   1.528       .  S
C1578      C1580   1.535       .  S
C1578      H1584   1.110       .  S
C1579      H1585   1.085       .  S
C1579      C1580   1.371       .  D
C1580      C1620   1.484       .  S
C1581      H1586   1.085       .  S
C1581      C1582   1.366       .  D
C1582      C1599   1.479       .  S
C1587      H1589   1.085       .  S
C1587      C1588   1.342       .  D
C1588      H1590   1.086       .  S
C1591      H1593   1.079       .  S
C1591      C1592   1.346       .  D
C1592      H1594   1.084       .  S
C1595      H1597   1.084       .  S
C1595      C1596   1.344       .  D
C1596      H1598   1.084       .  S
C1599      H1601   1.082       .  S
C1599      C1600   1.343       .  D
C1600      H1602   1.085       .  S
C1603      H1605   1.080       .  S
C1603      C1604   1.346       .  D
C1604      H1606   1.086       .  S
C1607      H1609   1.085       .  S
C1607      C1608   1.340       .  D
C1608      H1610   1.084       .  S
C1611      H1613   1.086       .  S
C1611      C1612   1.331       .  D
C1612      H1614   1.085       .  S
C1615      H1617   1.085       .  S
C1615      C1616   1.341       .  D
C1616      H1618   1.084       .  S
C1619      H1621   1.085       .  S
C1619      C1620   1.343       .  D
C1620      H1622   1.084       .  S
C1623      H1625   1.082       .  S
C1623      C1624   1.343       .  D
C1624      H1626   1.085       .  S
C1627      H1629   1.084       .  S
C1627      C1628   1.338       .  D
C1628      H1630   1.085       .  S
C1631      H1633   1.085       .  S
C1631      C1632   1.343       .  D
C1632      H1634   1.083       .  S
C1635      H1637   1.087       .  S
C1635      C1636   1.340       .  D
C1636      H1638   1.088       .  S
C1639      H1641   1.087       .  S
C1639      C1640   1.337       .  D
C1640      H1642   1.088       .  S
C1643      H1645   1.086       .  S
C1643      C1644   1.334       .  D
C1644      H1646   1.088       .  S
C1647      H1649   1.087       .  S
C1647      C1648   1.360       .  D
C1648      H1650   1.086       .  S
C1651      H1653   1.088       .  S
C1651      C1652   1.345       .  D
C1652      H1654   1.086       .  S
C1655      H1657   1.087       .  S
C1655      C1656   1.342       .  D
C1656      H1658   1.088       .  S
C1659      H1661   1.087       .  S
C1659      C1660   1.349       .  D
C1660      H1662   1.087       .  S
C1663      H1665   1.089       .  S
C1663      C1664   1.349       .  D
C1664      H1666   1.086       .  S
O1667      C1669   1.280       .  A
O1668      C1669   1.290       .  A
O1668     Zr1705   2.435       .  S
C1669      C1889   1.461       .  S
O1670      C1672   1.281       .  A
O1670     Zr1682   2.413       .  S
O1671      C1672   1.290       .  A
C1672      C1878   1.468       .  S
O1673      C1675   1.281       .  A
O1674      C1675   1.294       .  A
C1675      C1901   1.476       .  S
O1676      C1678   1.280       .  A
O1676     Zr1679   2.408       .  S
O1677      C1678   1.294       .  A
C1678      C1897   1.480       .  S
Zr1679     O1680   2.434       .  S
Zr1679     O1681   2.435       .  S
Zr1679     O1709   2.353       .  S
O1681      H1726   0.990       .  S
Zr1682     O1684   2.434       .  S
Zr1682     O1686   2.372       .  S
O1683      H1727   0.990       .  S
O1686      H1713   0.966       .  S
O1687      C1689   1.279       .  A
O1688      C1689   1.292       .  A
C1689      C1873   1.467       .  S
O1690      C1692   1.295       .  A
O1690     Zr1702   2.477       .  S
O1691      C1692   1.281       .  A
C1692      C1881   1.478       .  S
O1693      C1695   1.290       .  A
O1694      C1695   1.293       .  A
O1694     Zr1706   2.464       .  S
C1695      C1885   1.498       .  S
O1696      C1698   1.280       .  A
O1696     Zr1699   2.407   1_655  S
O1697      C1698   1.290       .  A
C1698      C1894   1.469       .  S
Zr1699     O1700   2.437       .  S
Zr1699     O1701   2.434       .  S
Zr1699     O1708   2.365   1_456  S
O1700      H1725   0.990       .  S
Zr1702     O1704   2.436       .  S
Zr1702     O1710   2.357       .  S
O1704      H1728   0.990       .  S
Zr1705     O1711   2.386       .  S
Zr1706     O1712   2.385       .  S
O1707      H1715   0.966       .  S
O1710      H1714   0.966       .  S
O1711      H1716   0.965       .  S
C1729      C1730   1.544       .  S
C1729      C1735   1.539       .  S
C1729      C1733   1.525       .  S
C1729      C1874   1.508       .  S
C1730      H1737   1.085       .  S
C1730      C1731   1.369       .  D
C1731      C1732   1.533       .  S
C1731      C1861   1.489       .  S
C1732      C1736   1.546       .  S
C1732      C1734   1.545       .  S
C1732      H1738   1.104       .  S
C1733      H1739   1.087       .  S
C1733      C1734   1.360       .  D
C1734      C1866   1.477       .  S
C1735      H1740   1.086       .  S
C1735      C1736   1.364       .  D
C1736      C1870   1.489       .  S
C1741      C1742   1.545       .  S
C1741      C1747   1.551       .  S
C1741      C1745   1.531       .  S
C1741      C1898   1.519       .  S
C1742      H1749   1.085       .  S
C1742      C1743   1.369       .  D
C1743      C1744   1.529       .  S
C1743      C1869   1.482       .  S
C1744      C1748   1.526       .  S
C1744      C1746   1.536       .  S
C1744      H1750   1.109       .  S
C1745      H1751   1.087       .  S
C1745      C1746   1.360       .  D
C1746      C1857   1.471       .  S
C1747      H1752   1.084       .  S
C1747      C1748   1.375       .  D
C1748      C1853   1.491       .  S
C1753      C1754   1.528       .  S
C1753      C1759   1.538       .  S
C1753      C1757   1.520       .  S
C1753      C1877   1.503       .  S
C1754      H1761   1.087       .  S
C1754      C1755   1.362       .  D
C1755      C1756   1.560       .  S
C1755      C1854   1.492       .  S
C1756      C1760   1.553       .  S
C1756      C1758   1.556       .  S
C1756      H1762   1.103       .  S
C1757      H1763   1.087       .  S
C1757      C1758   1.355       .  D
C1758      C1849   1.481       .  S
C1759      H1764   1.086       .  S
C1759      C1760   1.371       .  D
C1760      C1845   1.502       .  S
C1765      C1766   1.543       .  S
C1765      C1771   1.537       .  S
C1765      C1769   1.551       .  S
C1765      C1886   1.527       .  S
C1766      H1773   1.084       .  S
C1766      C1767   1.372       .  D
C1767      C1768   1.542       .  S
C1767      C1846   1.506       .  S
C1768      C1772   1.541       .  S
C1768      C1770   1.540       .  S
C1768      H1774   1.108       .  S
C1769      H1775   1.083       .  S
C1769      C1770   1.374       .  D
C1770      C1841   1.487       .  S
C1771      H1776   1.087       .  S
C1771      C1772   1.362       .  D
C1772      C1862   1.491       .  S
C1777      C1778   1.542       .  S
C1777      C1783   1.534       .  S
C1777      C1781   1.532       .  S
C1777      C1893   1.512       .  S
C1778      H1785   1.086       .  S
C1778      C1779   1.369       .  D
C1779      C1780   1.544       .  S
C1779      C1838   1.491       .  S
C1780      C1784   1.538       .  S
C1780      C1782   1.533       .  S
C1780      H1786   1.103       .  S
C1781      H1787   1.084       .  S
C1781      C1782   1.370       .  D
C1782      C1865   1.478       .  S
C1783      H1788   1.087       .  S
C1783      C1784   1.358       .  D
C1784      C1833   1.479       .  S
C1789      C1790   1.535       .  S
C1789      C1795   1.537       .  S
C1789      C1793   1.552       .  S
C1789      C1882   1.516       .  S
C1790      H1797   1.083       .  S
C1790      C1791   1.366       .  D
C1791      C1792   1.529       .  S
C1791      C1834   1.483       .  S
C1792      C1796   1.528       .  S
C1792      C1794   1.540       .  S
C1792      H1798   1.107       .  S
C1793      H1799   1.085       .  S
C1793      C1794   1.375       .  D
C1794      C1842   1.498       .  S
C1795      H1800   1.085       .  S
C1795      C1796   1.364       .  D
C1796      C1829   1.474       .  S
C1801      C1802   1.541       .  S
C1801      C1807   1.546       .  S
C1801      C1805   1.544       .  S
C1801      C1902   1.522       .  S
C1802      H1809   1.087       .  S
C1802      C1803   1.360       .  D
C1803      C1804   1.538       .  S
C1803      C1830   1.481       .  S
C1804      C1808   1.524       .  S
C1804      C1806   1.523       .  S
C1804      H1810   1.108       .  S
C1805      H1811   1.085       .  S
C1805      C1806   1.377       .  D
C1806      C1850   1.484       .  S
C1807      H1812   1.086       .  S
C1807      C1808   1.364       .  D
C1808      C1825   1.471       .  S
C1813      C1814   1.540       .  S
C1813      C1819   1.540       .  S
C1813      C1817   1.528       .  S
C1813      C1890   1.500       .  S
C1814      H1821   1.086       .  S
C1814      C1815   1.362       .  D
C1815      C1816   1.542       .  S
C1815      C1826   1.483       .  S
C1816      C1820   1.535       .  S
C1816      C1818   1.531       .  S
C1816      H1822   1.108       .  S
C1817      H1823   1.085       .  S
C1817      C1818   1.364       .  D
C1818      C1858   1.471       .  S
C1819      H1824   1.085       .  S
C1819      C1820   1.366       .  D
C1820      C1837   1.486       .  S
C1825      H1827   1.082       .  S
C1825      C1826   1.339       .  D
C1826      H1828   1.086       .  S
C1829      H1831   1.082       .  S
C1829      C1830   1.339       .  D
C1830      H1832   1.085       .  S
C1833      H1835   1.083       .  S
C1833      C1834   1.342       .  D
C1834      H1836   1.083       .  S
C1837      H1839   1.081       .  S
C1837      C1838   1.347       .  D
C1838      H1840   1.085       .  S
C1841      H1843   1.082       .  S
C1841      C1842   1.350       .  D
C1842      H1844   1.085       .  S
C1845      H1847   1.083       .  S
C1845      C1846   1.352       .  D
C1846      H1848   1.083       .  S
C1849      H1851   1.086       .  S
C1849      C1850   1.334       .  D
C1850      H1852   1.086       .  S
C1853      H1855   1.082       .  S
C1853      C1854   1.339       .  D
C1854      H1856   1.085       .  S
C1857      H1859   1.085       .  S
C1857      C1858   1.340       .  D
C1858      H1860   1.084       .  S
C1861      H1863   1.083       .  S
C1861      C1862   1.346       .  D
C1862      H1864   1.085       .  S
C1865      H1867   1.083       .  S
C1865      C1866   1.340       .  D
C1866      H1868   1.084       .  S
C1869      H1871   1.082       .  S
C1869      C1870   1.342       .  D
C1870      H1872   1.085       .  S
C1873      H1875   1.089       .  S
C1873      C1874   1.335       .  D
C1874      H1876   1.087       .  S
C1877      H1879   1.087       .  S
C1877      C1878   1.336       .  D
C1878      H1880   1.087       .  S
C1881      H1883   1.087       .  S
C1881      C1882   1.340       .  D
C1882      H1884   1.088       .  S
C1885      H1887   1.084       .  S
C1885      C1886   1.355       .  D
C1886      H1888   1.087       .  S
C1889      H1891   1.088       .  S
C1889      C1890   1.333       .  D
C1890      H1892   1.087       .  S
C1893      H1895   1.086       .  S
C1893      C1894   1.339       .  D
C1894      H1896   1.088       .  S
C1897      H1899   1.088       .  S
C1897      C1898   1.338       .  D
C1898      H1900   1.087       .  S
C1901      H1903   1.089       .  S
C1901      C1902   1.343       .  D
C1902      H1904   1.086       .  S
