geometry optimzed in LAMMPS
_audit_creation_date              2020-11-30 
_audit_creation_method            'lammps2cif' 
_symmetry_space_group_name_H-M    'P1' 
_symmetry_Int_Tables_number       1 
_symmetry_cell_setting            triclinic 
loop_ 
_symmetry_equiv_pos_as_xyz 
  x,y,z 
_cell_length_a                    41.883959092330244 
_cell_length_b                    42.10464740874971 
_cell_length_c                    41.88301200928156 
_cell_angle_alpha                 87.92204764609531 
_cell_angle_beta                  90.29288738849185 
_cell_angle_gamma                 92.5129720773013 
loop_ 
_atom_site_label 
_atom_site_type_symbol 
_atom_site_fract_x 
_atom_site_fract_y 
_atom_site_fract_z 
_atom_site_charge 
N1          N  0.46799785  0.32551875  0.57598699    -0.07440
N2          N  0.47969741  0.32599765  0.60513850    -0.59560
N3          N  0.41896831  0.34159908  0.51652490    -0.07120
N4          N  0.39767576  0.34723989  0.49428587    -0.61680
N5          N  0.40944241  0.31658613  0.53413454    -0.06710
N6          N  0.38143607  0.30519454  0.52474983    -0.59530
N7          N  0.47859969  0.35017546  0.55891169    -0.06390
N8          N  0.49812719  0.36829141  0.57564059    -0.62040
C9          C  0.49822733  0.35277309  0.60431464     0.94740
C10         C  0.37522661  0.32390044  0.49946244     0.94520
N11         N  0.47363112  0.33740565  0.43830793    -0.07620
N12         N  0.46075267  0.34245877  0.40970415    -0.60130
N13         N  0.51932989  0.35936928  0.50004108    -0.05740
N14         N  0.53995349  0.37944851  0.51277015    -0.61390
N15         N  0.53369018  0.34116306  0.48058076    -0.07650
N16         N  0.56437105  0.34793063  0.47977167    -0.60400
N17         N  0.46012555  0.35489265  0.45912388    -0.05380
N18         N  0.43801861  0.37179028  0.44583477    -0.61470
Mn19       Mn  0.46929244  0.35289590  0.50894538     1.18440
C20         C  0.43848878  0.36418302  0.41523007     0.96820
C21         C  0.56800063  0.37176563  0.50002953     0.97490
N22         N  0.42009490  0.24569210  0.53355319    -0.07670
N23         N  0.38909883  0.24317063  0.53567415    -0.63980
N24         N  0.49285131  0.23523577  0.55815834    -0.06470
N25         N  0.50832285  0.22038624  0.58248137    -0.64650
N26         N  0.47797309  0.25837449  0.57084000    -0.07180
N27         N  0.48338135  0.26124339  0.60083435    -0.64240
N28         N  0.43078172  0.22991401  0.50955375    -0.06070
N29         N  0.40538062  0.21859484  0.49307651    -0.64930
Mn30       Mn  0.44376086  0.28628880  0.55377692     1.10660
C31         C  0.37940405  0.22691175  0.51055744     0.98050
C32         C  0.50162436  0.23792338  0.60901310     0.98120
N33         N  0.54547979  0.27221369  0.47422819    -0.07180
N34         N  0.57607297  0.28035615  0.47407409    -0.62560
N35         N  0.47799572  0.23933895  0.44576072    -0.06500
N36         N  0.46771951  0.22083938  0.42192561    -0.59290
N37         N  0.48624627  0.26738597  0.43280557    -0.07810
N38         N  0.48185456  0.26918549  0.40196273    -0.62120
N39         N  0.53924084  0.24782045  0.49413437    -0.06800
N40         N  0.56663465  0.23981602  0.50858598    -0.59310
Mn41       Mn  0.50990310  0.30451849  0.45559690     1.20190
Mn42       Mn  0.48553274  0.23452013  0.50180779     1.10090
Cl43       Cl  0.47699997  0.29377488  0.50454073    -0.87280
C44         C  0.58973039  0.26061749  0.49546064     0.95050
C45         C  0.47015139  0.24057819  0.39479042     0.94850
N46         N  0.47539784  0.46680719  0.34303908    -0.07440
N47         N  0.44508534  0.46272398  0.35125929    -0.59560
N48         N  0.55617486  0.46542714  0.32434918    -0.07120
N49         N  0.58745395  0.46395400  0.32096679    -0.61680
N50         N  0.54955161  0.48435008  0.34729616    -0.06710
N51         N  0.57626261  0.49594745  0.35992378    -0.59530
N52         N  0.48293992  0.44495049  0.32320719    -0.06390
N53         N  0.45815155  0.42554875  0.31786366    -0.62040
C54         C  0.43451192  0.43698944  0.33501540     0.94740
C55         C  0.59968059  0.48300560  0.34347954     0.94520
N56         N  0.55222923  0.49083104  0.23016934    -0.07620
N57         N  0.58149236  0.50290955  0.22279412    -0.60130
N58         N  0.48542867  0.44212240  0.25480383    -0.05740
N59         N  0.47678233  0.41199272  0.25511065    -0.61390
N60         N  0.48281067  0.45620068  0.22656943    -0.07650
N61         N  0.47420201  0.43322067  0.20614863    -0.60400
N62         N  0.55525681  0.46675511  0.25101635    -0.05380
N63         N  0.58538633  0.46115185  0.25623675    -0.61470
Mn64       Mn  0.52029322  0.45411049  0.28842965     1.18440
C65         C  0.60202177  0.48342677  0.23902902     0.96820
C66         C  0.46970106  0.40569353  0.22519293     0.97490
N67         N  0.53647156  0.55289106  0.34211810    -0.07670
N68         N  0.56141913  0.56027375  0.35990741    -0.63980
N69         N  0.46305024  0.56262146  0.31999752    -0.06470
N70         N  0.43412339  0.57228044  0.31541843    -0.64650
N71         N  0.46335872  0.53891861  0.34113776    -0.07180
N72         N  0.43395024  0.53118405  0.35038120    -0.64240
N73         N  0.53455778  0.57309958  0.31779541    -0.06070
N74         N  0.55791494  0.59491122  0.31858276    -0.64930
Mn75       Mn  0.50552984  0.51031064  0.34551077     1.10660
C76         C  0.57476711  0.58655430  0.34497013     0.98050
C77         C  0.41618187  0.55236250  0.33392835     0.98120
N78         N  0.45397614  0.53271471  0.22977316    -0.07180
N79         N  0.42373253  0.52697826  0.22039661    -0.62560
N80         N  0.53451824  0.57236874  0.24705598    -0.06500
N81         N  0.54050695  0.60321125  0.24674503    -0.59290
N82         N  0.51926079  0.56371014  0.22136398    -0.07810
N83         N  0.50677059  0.59008802  0.20819248    -0.62120
N84         N  0.45542622  0.55734513  0.24854160    -0.06800
N85         N  0.42663554  0.56869369  0.25158228    -0.59310
Mn86       Mn  0.50177735  0.51019853  0.22375371     1.20190
Mn87       Mn  0.49722353  0.56739200  0.28266010     1.10090
Cl88       Cl  0.50551232  0.51017365  0.28502128    -0.87280
C89         C  0.40669053  0.54994152  0.23429751     0.95050
C90         C  0.52086460  0.61496567  0.22454004     0.94850
N91         N  0.43874280  0.70411653  0.51674187    -0.07440
N92         N  0.41155809  0.70618752  0.50109913    -0.59560
N93         N  0.50499506  0.68974084  0.56048303    -0.07120
N94         N  0.52773597  0.68284142  0.58100401    -0.61680
N95         N  0.48705244  0.71147195  0.57182712    -0.06710
N96         N  0.49695816  0.71936319  0.60032870    -0.59530
N97         N  0.45530943  0.68097871  0.50588175    -0.06390
N98         N  0.43968208  0.66720308  0.48249764    -0.62040
C99         C  0.41262991  0.68323015  0.47981750     0.94740
C100        C  0.52236171  0.70174815  0.60549074     0.94520
N101        N  0.57097195  0.70585822  0.48935580    -0.07620
N102        N  0.60176452  0.70862161  0.49202741    -0.60130
N103        N  0.51051574  0.67446216  0.45868383    -0.05740
N104        N  0.51965620  0.64813308  0.44591363    -0.61390
N105        N  0.51845574  0.69901887  0.43966159    -0.07650
N106        N  0.53058776  0.68965918  0.41313679    -0.60400
N107        N  0.55878421  0.68576450  0.51096590    -0.05380
N108        N  0.58180000  0.67422676  0.52932206    -0.61470
Mn109      Mn  0.50690513  0.68092200  0.51014206     1.18440
C110        C  0.60852158  0.68903084  0.51640635     0.96820
C111        C  0.53259764  0.65829745  0.41766692     0.97490
N112        N  0.48541826  0.78241559  0.56428104    -0.07670
N113        N  0.48772695  0.78253433  0.59550596    -0.63980
N114        N  0.45316310  0.79753582  0.49111682    -0.06470
N115        N  0.43198257  0.80878241  0.46986443    -0.64650
N116        N  0.43823234  0.77611832  0.50995746    -0.07180
N117        N  0.40786453  0.77273065  0.50286599    -0.64240
N118        N  0.50719089  0.80155359  0.55022135    -0.06070
N119        N  0.52592174  0.81411032  0.57317600    -0.64930
Mn120      Mn  0.46124597  0.74343096  0.54134589     1.10660
C121        C  0.51303276  0.80174046  0.60152263     0.98050
C122        C  0.40372138  0.79265229  0.47780793     0.98120
N123        N  0.52260976  0.76953497  0.42942216    -0.07180
N124        N  0.51869313  0.76439034  0.39908711    -0.62560
N125        N  0.56439501  0.79764487  0.49580269    -0.06500
N126        N  0.59002889  0.80985083  0.51167891    -0.59290
N127        N  0.57439793  0.77512704  0.47804166    -0.07810
N128        N  0.60519467  0.77214252  0.48023903    -0.62120
N129        N  0.50748365  0.79408196  0.43888372    -0.06800
N130        N  0.49156639  0.80594414  0.41351764    -0.59310
Mn131      Mn  0.54579837  0.73765360  0.45911914     1.20190
Mn132      Mn  0.50847676  0.80095479  0.49418740     1.10090
Cl133      Cl  0.50560920  0.74110787  0.50132990    -0.87280
C134        C  0.49946988  0.78683858  0.38888000     0.95050
C135        C  0.61565029  0.79339259  0.50092905     0.94850
N136        N  0.71183925  0.57678148  0.43775616    -0.07440
N137        N  0.71273692  0.56962871  0.40732394    -0.59560
N138        N  0.69744158  0.60838830  0.51033395    -0.07120
N139        N  0.68905181  0.62613155  0.53370244    -0.61680
N140        N  0.72398928  0.61981795  0.49690619    -0.06710
N141        N  0.73374562  0.64606568  0.51082641    -0.59530
N142        N  0.68434653  0.56754303  0.45048480    -0.06390
N143        N  0.66599252  0.55369178  0.42889425    -0.62040
C144        C  0.68385251  0.55556180  0.40209719     0.94740
C145        C  0.71190091  0.64967122  0.53396992     0.94520
N146        N  0.68654018  0.52641149  0.56600025    -0.07620
N147        N  0.68485019  0.52420715  0.59686291    -0.60130
N148        N  0.66811701  0.51217900  0.49373857    -0.05740
N149        N  0.64879396  0.50030534  0.47208658    -0.61390
N150        N  0.68539760  0.48997014  0.50671011    -0.07650
N151        N  0.67855942  0.46258433  0.49420129    -0.60400
N152        N  0.67433574  0.55242256  0.55455362    -0.05380
N153        N  0.66490339  0.56945716  0.57862972    -0.61470
Mn154      Mn  0.67897303  0.56130247  0.50236583     1.18440
C155        C  0.67165234  0.55074285  0.60493432     0.96820
C156        C  0.65529270  0.46921689  0.47307237     0.97490
N157        N  0.79410097  0.60390336  0.49138411    -0.07670
N158        N  0.79777036  0.63458617  0.49281594    -0.63980
N159        N  0.79381756  0.53374868  0.45925908    -0.06470
N160        N  0.79742766  0.51131208  0.43755230    -0.64650
N161        N  0.78106849  0.55819414  0.44426677    -0.07180
N162        N  0.77741866  0.55411359  0.41382125    -0.64240
N163        N  0.80149253  0.58898134  0.51811114    -0.06070
N164        N  0.80739624  0.61149696  0.53988657    -0.64930
Mn165      Mn  0.75271098  0.59025885  0.46690439     1.10660
C166        C  0.80544348  0.64030040  0.52282809     0.98050
C167        C  0.78728380  0.52508514  0.40903130     0.98120
N168        N  0.75126303  0.46993829  0.52222818    -0.07180
N169        N  0.74494597  0.43932156  0.52116758    -0.62560
N170        N  0.78187742  0.53045780  0.57032382    -0.06500
N171        N  0.79367503  0.54472006  0.59632294    -0.59290
N172        N  0.75526223  0.51437028  0.57835566    -0.07810
N173        N  0.74891892  0.51673317  0.60889895    -0.62120
N174        N  0.78053153  0.47823176  0.51370631    -0.06800
N175        N  0.79510386  0.45163860  0.50629306    -0.59310
Mn176      Mn  0.71952692  0.49960709  0.54306778     1.20190
Mn177      Mn  0.79289730  0.53286207  0.51587786     1.10090
Cl178      Cl  0.73635510  0.54586539  0.50712842    -0.87280
C179        C  0.77189983  0.42757055  0.51110923     0.95050
C180        C  0.77243782  0.53577257  0.62039844     0.94850
N181        N  0.57358988  0.47047384  0.70534840    -0.07440
N182        N  0.57731177  0.43991167  0.70277173    -0.59560
N183        N  0.59857084  0.54597900  0.69696358    -0.07120
N184        N  0.61914824  0.56887418  0.68777042    -0.61680
N185        N  0.60778389  0.53242712  0.72400633    -0.06710
N186        N  0.63520701  0.54560924  0.73326220    -0.59530
N187        N  0.56515336  0.48359054  0.67801538    -0.06390
N188        N  0.56287285  0.46213768  0.65604099    -0.62040
C189        C  0.57094307  0.43510308  0.67184732     0.94740
C190        C  0.64218003  0.56856537  0.71046640     0.94520
N191        N  0.51794660  0.59304400  0.68519001    -0.07620
N192        N  0.52179072  0.62343808  0.69069491    -0.60130
N193        N  0.50489199  0.51942564  0.65719098    -0.05740
N194        N  0.49568156  0.49731598  0.63704354    -0.61390
N195        N  0.47993151  0.53011660  0.67163200    -0.07650
N196        N  0.45343699  0.51584282  0.66162561    -0.60400
N197        N  0.54363481  0.58283096  0.67199142    -0.05380
N198        N  0.56546153  0.60624681  0.66831982    -0.61470
Mn199      Mn  0.55340898  0.53294640  0.67406383     1.18440
C200        C  0.55163564  0.63131333  0.68073700     0.96820
C201        C  0.46345759  0.49520049  0.64038232     0.97490
N202        N  0.58353957  0.51608926  0.79278402    -0.07670
N203        N  0.61374483  0.52102028  0.79882271    -0.63980
N204        N  0.51665756  0.47431003  0.78289764    -0.06470
N205        N  0.49537931  0.44925722  0.78225544    -0.64650
N206        N  0.54396628  0.46449170  0.77242990    -0.07180
N207        N  0.54267078  0.43425598  0.76670924    -0.64240
N208        N  0.56674518  0.54064890  0.79813970    -0.06070
N209        N  0.58771046  0.56496000  0.80470714    -0.64930
Mn210      Mn  0.57739224  0.49559826  0.74868507     1.10660
C211        C  0.61748099  0.55152684  0.80533172     0.98050
C212        C  0.51254546  0.42401195  0.77232573     0.98120
N213        N  0.45170704  0.53250038  0.73986815    -0.07180
N214        N  0.42122885  0.52670697  0.73360105    -0.62560
N215        N  0.50579140  0.58489776  0.77748030    -0.06500
N216        N  0.51583800  0.61157332  0.79186829    -0.59290
N217        N  0.49092176  0.59308129  0.75088034    -0.07810
N218        N  0.48944560  0.62402499  0.74721092    -0.62120
N219        N  0.45964186  0.52149952  0.76846143    -0.06800
N220        N  0.43380050  0.50712535  0.78212426    -0.59310
Mn221      Mn  0.48426393  0.56205581  0.71118992     1.20190
Mn222      Mn  0.51197682  0.53055401  0.78494972     1.10090
Cl223      Cl  0.53116844  0.52992144  0.72982981    -0.87280
C224        C  0.41003821  0.51058478  0.75974429     0.95050
C225        C  0.50482543  0.63592208  0.77244607     0.94850
N226        N  0.32620356  0.45353862  0.44915853    -0.07440
N227        N  0.34510847  0.42946175  0.45001571    -0.59560
N228        N  0.28776724  0.50201000  0.40170894    -0.07120
N229        N  0.28284639  0.50900380  0.37147387    -0.61680
N230        N  0.31588802  0.51367935  0.41051881    -0.06710
N231        N  0.32959437  0.53039836  0.38706517    -0.59530
N232        N  0.29784074  0.44406018  0.43930499    -0.06390
N233        N  0.29669059  0.41405063  0.43255385    -0.62040
C234        C  0.32625217  0.40528006  0.43906026     0.94740
C235        C  0.30828548  0.52780262  0.36306695     0.94520
N236        N  0.21528338  0.52281960  0.44143497    -0.07620
N237        N  0.21703257  0.54693574  0.41920845    -0.60130
N238        N  0.23305820  0.44571633  0.46850907    -0.05740
N239        N  0.23325974  0.41476197  0.46966067    -0.61390
N240        N  0.22119067  0.45758007  0.49426799    -0.07650
N241        N  0.21344199  0.43267172  0.51442194    -0.60400
N242        N  0.21560156  0.49650144  0.42620127    -0.05380
N243        N  0.21172677  0.50127649  0.39564004    -0.61470
Mn244      Mn  0.25838426  0.47232133  0.43393298     1.18440
C245        C  0.21437327  0.53237150  0.39003517     0.96820
C246        C  0.22106375  0.40594888  0.49800048     0.97490
N247        N  0.34460643  0.55416916  0.46059875    -0.07670
N248        N  0.35206151  0.57425195  0.43662178    -0.63980
N249        N  0.33990385  0.50938428  0.52893729    -0.06470
N250        N  0.35161205  0.49990884  0.55666853    -0.64650
N251        N  0.35307218  0.49459937  0.50564081    -0.07180
N252        N  0.37438635  0.47490625  0.51705978    -0.64240
N253        N  0.33167397  0.56901022  0.48383744    -0.06070
N254        N  0.33004655  0.59944904  0.47615732    -0.64930
Mn255      Mn  0.33674087  0.50354104  0.45652742     1.10660
C256        C  0.34241788  0.60235113  0.44649638     0.98050
C257        C  0.37297242  0.47827940  0.54905413     0.98120
N258        N  0.24314837  0.50921882  0.54895592    -0.07180
N259        N  0.22948896  0.49915188  0.57659235    -0.62560
N260        N  0.26592303  0.57693418  0.50956211    -0.06500
N261        N  0.27140532  0.60783328  0.50655613    -0.59290
N262        N  0.23783606  0.56828502  0.49775419    -0.07810
N263        N  0.22397410  0.59411707  0.48553471    -0.62120
N264        N  0.27256405  0.51963466  0.55496118    -0.06800
N265        N  0.27953783  0.51717108  0.58547475    -0.59310
Mn266      Mn  0.22624174  0.51457335  0.49628641     1.20190
Mn267      Mn  0.30302073  0.54385803  0.52018677     1.10090
Cl268      Cl  0.28104286  0.50821503  0.47747729    -0.87280
C269        C  0.25285964  0.50454392  0.59920175     0.95050
C270        C  0.24547835  0.61869612  0.49164020     0.94850
N271        N  0.84375379  0.53469395  0.96931355    -0.07440
N272        N  0.84421751  0.55277017  0.94307784    -0.59560
N273        N  0.85704445  0.47908223  0.02841304    -0.07120
N274        N  0.86575973  0.45419669  0.04632390    -0.61680
N275        N  0.83639131  0.46949934  0.00682010    -0.06710
N276        N  0.83048166  0.43873330  0.00957257    -0.59530
N277        N  0.86332554  0.54669016  0.99068052    -0.06390
N278        N  0.87761774  0.57330964  0.97915714    -0.62040
C279        C  0.86500672  0.57695094  0.94947816     0.94740
C280        C  0.84853511  0.42922534  0.03436275     0.94520
N281        N  0.82535449  0.52084338  0.10521862    -0.07620
N282        N  0.81855189  0.49949248  0.12837347    -0.60130
N283        N  0.85532320  0.57993018  0.05425532    -0.05740
N284        N  0.86795275  0.60629616  0.04062108    -0.61390
N285        N  0.83211016  0.58704237  0.07319855    -0.07650
N286        N  0.82930078  0.61785038  0.07407792    -0.60400
N287        N  0.85076434  0.51338797  0.08954656    -0.05380
N288        N  0.86193309  0.48702658  0.10180872    -0.61470
Mn289      Mn  0.85865917  0.53013749  0.04056903     1.18440
C290        C  0.84147599  0.47837398  0.12561110     0.96820
C291        C  0.85174240  0.62961604  0.05389831     0.97490
N292        N  0.76524953  0.46740260  0.99343923    -0.07670
N293        N  0.76565896  0.43644219  0.99036125    -0.63980
N294        N  0.74718327  0.54083474  0.96689209    -0.06470
N295        N  0.73277229  0.55429165  0.94108902    -0.64650
N296        N  0.77450294  0.53065930  0.95703496    -0.07180
N297        N  0.77982281  0.53740385  0.92691619    -0.64240
N298        N  0.74027661  0.47525924  0.00996932    -0.06070
N299        N  0.72377066  0.44873667  0.01944045    -0.64930
Mn300      Mn  0.80537208  0.50023399  0.98131550     1.10660
C301        C  0.73986665  0.42475049  0.00636313     0.98050
C302        C  0.75434320  0.55208805  0.91617793     0.98120
N303        N  0.76024305  0.58623412  0.06058203    -0.07180
N304        N  0.76251958  0.61667740  0.06557159    -0.62560
N305        N  0.73158034  0.51315050  0.07658549    -0.06500
N306        N  0.71057698  0.49705092  0.09612888    -0.59290
N307        N  0.75597828  0.52218207  0.09436674    -0.07810
N308        N  0.75345826  0.51226915  0.12395988    -0.62120
N309        N  0.74132959  0.58008728  0.03605744    -0.06800
N310        N  0.73130942  0.60773105  0.02354768    -0.59310
Mn311      Mn  0.79320733  0.55414666  0.08373292     1.20190
Mn312      Mn  0.73691911  0.52770196  0.02179975     1.10090
Cl313      Cl  0.79785859  0.52849684  0.03148984    -0.87280
C314        C  0.74500757  0.63053986  0.04267941     0.95050
C315        C  0.72567276  0.49646492  0.12569496     0.94850
N316        N  0.97913267  0.55980269  0.85690681    -0.07440
N317        N  0.96888413  0.58458096  0.87161345    -0.59560
N318        N  0.98591287  0.48441558  0.84006560    -0.07120
N319        N  0.98298311  0.45353236  0.83883588    -0.61680
N320        N  0.01056417  0.49330563  0.85743184    -0.06710
N321        N  0.02571885  0.46790099  0.86749446    -0.59530
N322        N  0.95696320  0.54878198  0.83753183    -0.06390
N323        N  0.93128762  0.56547773  0.83868258    -0.62040
C324        C  0.93903831  0.58801421  0.85969587     0.94740
C325        C  0.00771738  0.44330256  0.85579050     0.94520
N326        N  0.99756984  0.48589255  0.74328698    -0.07620
N327        N  0.00603025  0.45881832  0.73062971    -0.60130
N328        N  0.94575471  0.54181042  0.76767314    -0.05740
N329        N  0.91567311  0.54843458  0.76987631    -0.61390
N330        N  0.95834713  0.55056887  0.73990804    -0.07650
N331        N  0.93502286  0.56339611  0.72204502    -0.60400
N332        N  0.97885087  0.47896064  0.76804625    -0.05380
N333        N  0.97374797  0.44803514  0.77211169    -0.61470
Mn334      Mn  0.96646391  0.51347995  0.80338864     1.18440
C335        C  0.99063652  0.43529929  0.74899878     0.96820
C336        C  0.90858549  0.56217097  0.74188922     0.97490
N337        N  0.07650955  0.52713065  0.84598033    -0.07670
N338        N  0.09119053  0.50220134  0.85826212    -0.63980
N339        N  0.06223201  0.60255397  0.82281949    -0.06470
N340        N  0.06301624  0.63342576  0.81764400    -0.64650
N341        N  0.04397719  0.59380331  0.84715697    -0.07180
N342        N  0.03062350  0.61907874  0.85816698    -0.64240
N343        N  0.09212667  0.53877888  0.82084627    -0.06070
N344        N  0.11708621  0.52237201  0.81533122    -0.64930
Mn345      Mn  0.02798978  0.54340282  0.85413476     1.10660
C346        C  0.11654954  0.49983693  0.83851337     0.98050
C347        C  0.04326392  0.64343915  0.83958515     0.98120
N348        N  0.02715521  0.59271671  0.73269011    -0.07180
N349        N  0.01366496  0.61944128  0.72172738    -0.62560
N350        N  0.08638397  0.54173737  0.75079117    -0.06500
N351        N  0.11622264  0.53415277  0.74983317    -0.59290
N352        N  0.06767111  0.52535968  0.73162975    -0.07810
N353        N  0.08633267  0.50448711  0.71756048    -0.62120
N354        N  0.05147023  0.60113388  0.75105477    -0.06800
N355        N  0.05564816  0.63193655  0.75195243    -0.59310
Mn356      Mn  0.01255614  0.53847248  0.73379823     1.20190
Mn357      Mn  0.07315109  0.57127153  0.78632426     1.10090
Cl358      Cl  0.01993505  0.54156662  0.79408087    -0.87280
C359        C  0.03264289  0.64389345  0.73375081     0.95050
C360        C  0.11688836  0.51083475  0.72966300     0.94850
N361        N  0.28044159  0.52013587  0.94442954    -0.07440
N362        N  0.29571224  0.50617742  0.92072055    -0.59560
N363        N  0.25169164  0.58540471  0.98009839    -0.07120
N364        N  0.24744836  0.61568275  0.98068294    -0.61680
N365        N  0.27656929  0.57688590  0.99701062    -0.06710
N366        N  0.28979952  0.60316672  0.01001673    -0.59530
N367        N  0.25752112  0.53646286  0.93136319    -0.06390
N368        N  0.25720667  0.53530085  0.90016907    -0.62040
C369        C  0.28064279  0.51646322  0.89291734     0.94740
C370        C  0.27101095  0.62740043  0.99881419     0.94520
N371        N  0.15777375  0.55834042  0.99352205    -0.07620
N372        N  0.13171758  0.57423845  0.99625151    -0.60130
N373        N  0.18706070  0.52272592  0.93305775    -0.05740
N374        N  0.19685003  0.51076721  0.90672734    -0.61390
N375        N  0.16804112  0.50210579  0.94883111    -0.07650
N376        N  0.16551269  0.47516605  0.93328334    -0.60400
N377        N  0.18015869  0.57609260  0.97937232    -0.05380
N378        N  0.17003735  0.60445760  0.97227502    -0.61470
Mn379      Mn  0.21903372  0.55564859  0.95624530     1.18440
C380        C  0.13972020  0.60310409  0.98290289     0.96820
C381        C  0.18419457  0.48112029  0.90725601     0.97490
N382        N  0.27953339  0.52598374  0.05677655    -0.07670
N383        N  0.29067501  0.54697552  0.07816779    -0.63980
N384        N  0.26246434  0.45289659  0.02738516    -0.06470
N385        N  0.25847011  0.42214626  0.02524295    -0.64650
N386        N  0.27923759  0.46571687  0.00337416    -0.07180
N387        N  0.28460673  0.44233394  0.98300082    -0.64240
N388        N  0.25883117  0.50649089  0.07174679    -0.06070
N389        N  0.25613780  0.51241586  0.10204828    -0.64930
Mn390      Mn  0.28230491  0.52196669  0.00050436     1.10660
C391        C  0.27555194  0.53772184  0.10654962     0.98050
C392        C  0.27142939  0.41476416  0.99759351     0.98120
N393        N  0.16763474  0.45812084  0.00738771    -0.07180
N394        N  0.15535120  0.43589095  0.98919511    -0.62560
N395        N  0.18685731  0.50306316  0.06901496    -0.06500
N396        N  0.18929054  0.51716473  0.09629943    -0.59290
N397        N  0.16349946  0.51462983  0.05173746    -0.07810
N398        N  0.14975964  0.53712619  0.06718025    -0.62120
N399        N  0.19018736  0.44698366  0.02579166    -0.06800
N400        N  0.19357587  0.41682878  0.02106467    -0.59310
Mn401      Mn  0.16225705  0.50792652  0.00042203     1.20190
Mn402      Mn  0.22474840  0.47693934  0.04918964     1.10090
Cl403      Cl  0.22247866  0.51568857  0.00161561    -0.87280
C404        C  0.17204484  0.41060904  0.99819155     0.95050
C405        C  0.16616990  0.53814324  0.09503187     0.94850
N406        N  0.96588490  0.49555016  0.16470162    -0.07440
N407        N  0.95360999  0.46732566  0.15787190    -0.59560
N408        N  0.98916251  0.57195060  0.17583987    -0.07120
N409        N  0.98516691  0.60112302  0.16579529    -0.61680
N410        N  0.00698092  0.55723155  0.15624897    -0.06710
N411        N  0.01532714  0.57615420  0.13175583    -0.59530
N412        N  0.94626816  0.51046422  0.18263619    -0.06390
N413        N  0.92032047  0.49252223  0.18829043    -0.62040
C414        C  0.92539222  0.46558708  0.17303111     0.94740
C415        C  0.00133928  0.60357945  0.13822823     0.94520
N416        N  0.99462429  0.57935493  0.27169718    -0.07620
N417        N  0.00236942  0.60722309  0.28492970    -0.60130
N418        N  0.93576094  0.52585908  0.25010366    -0.05740
N419        N  0.90476276  0.52200987  0.24755855    -0.61390
N420        N  0.94652213  0.51704125  0.27835823    -0.07650
N421        N  0.92101341  0.50721069  0.29623539    -0.60400
N422        N  0.97923503  0.58524482  0.24477165    -0.05380
N423        N  0.97603158  0.61589468  0.23917393    -0.61470
Mn424      Mn  0.96247906  0.54871724  0.21302678     1.18440
C425        C  0.99038284  0.62982385  0.26401101     0.96820
C426        C  0.89497868  0.51019276  0.27588611     0.97490
N427        N  0.06536063  0.52245544  0.17129456    -0.07670
N428        N  0.07828369  0.54889076  0.15818181    -0.63980
N429        N  0.03979303  0.45034881  0.20375440    -0.06470
N430        N  0.03753776  0.41943867  0.20946375    -0.64650
N431        N  0.02400683  0.45841333  0.17798692    -0.07180
N432        N  0.01010286  0.43302435  0.16573091    -0.64240
N433        N  0.08106419  0.51406786  0.19721028    -0.06070
N434        N  0.10526218  0.53450610  0.20170201    -0.64930
Mn435      Mn  0.01595640  0.50793620  0.16561153     1.10660
C436        C  0.10285754  0.55647198  0.17776050     0.98050
C437        C  0.01822177  0.40900703  0.18608256     0.98120
N438        N  0.00841260  0.46922600  0.28693361    -0.07180
N439        N  0.98886881  0.44315536  0.29249201    -0.62560
N440        N  0.07482909  0.51729275  0.26704186    -0.06500
N441        N  0.10497520  0.52473727  0.26448257    -0.59290
N442        N  0.05921858  0.53687352  0.28411538    -0.07810
N443        N  0.08111652  0.55958614  0.29326482    -0.62120
N444        N  0.03465915  0.45927854  0.27411252    -0.06800
N445        N  0.03472432  0.42829749  0.27327017    -0.59310
Mn446      Mn  0.00231069  0.52564799  0.28381352     1.20190
Mn447      Mn  0.05805410  0.48486128  0.23572977     1.10090
Cl448      Cl  0.00950764  0.51690257  0.22506006    -0.87280
C449        C  0.00639933  0.41747865  0.28412701     0.95050
C450        C  0.10994838  0.55089708  0.28024229     0.94850
N451        N  0.94135739  0.25018767  0.99423813    -0.07440
N452        N  0.91399056  0.24023326  0.00881144    -0.59560
N453        N  0.97678508  0.25868443  0.92544931    -0.07120
N454        N  0.97573723  0.25908705  0.89455544    -0.61680
N455        N  0.99180031  0.23458845  0.93792798    -0.06710
N456        N  0.00334024  0.21853474  0.91364269    -0.59530
N457        N  0.93568505  0.27610405  0.97701479    -0.06390
N458        N  0.90615396  0.28422866  0.97925373    -0.62040
C459        C  0.89210442  0.26197921  0.99845639     0.94740
C460        C  0.99215412  0.23455946  0.88673608     0.94520
N461        N  0.02637978  0.34442012  0.92818612    -0.07620
N462        N  0.04688936  0.35430113  0.90572753    -0.60130
N463        N  0.95800212  0.34454560  0.96554169    -0.05740
N464        N  0.92852924  0.35138564  0.97049218    -0.61390
N465        N  0.97809181  0.36311837  0.98092567    -0.07650
N466        N  0.96194455  0.38279935  0.99807471    -0.60400
N467        N  0.00505204  0.32436642  0.91654284    -0.05380
N468        N  0.01054669  0.31984530  0.88625948    -0.61470
Mn469      Mn  0.96872082  0.30099544  0.94620302     1.18440
C470        C  0.03665444  0.33880745  0.87941291     0.96820
C471        C  0.93090042  0.37523881  0.99042579     0.97490
N472        N  0.04982910  0.22607640  0.99004485    -0.07670
N473        N  0.07149068  0.21790830  0.96827994    -0.63980
N474        N  0.02063982  0.26016595  0.05920507    -0.06470
N475        N  0.02007265  0.26614164  0.08947375    -0.64650
N476        N  0.99665373  0.24153853  0.05007310    -0.07180
N477        N  0.97834624  0.23493791  0.07618974    -0.64240
N478        N  0.06581585  0.23836389  0.01376889    -0.06070
N479        N  0.09658686  0.23566914  0.01113013    -0.64930
Mn480      Mn  0.99435828  0.23468442  0.99334712     1.10660
C481        C  0.10106539  0.22385946  0.98256751     0.98050
C482        C  0.99398213  0.25068201  0.10080738     0.98120
N483        N  0.03224544  0.35233628  0.03177007    -0.07180
N484        N  0.02543982  0.37424748  0.05228416    -0.62560
N485        N  0.08314780  0.30635976  0.99399165    -0.06500
N486        N  0.10966694  0.29513184  0.98404930    -0.59290
N487        N  0.07613137  0.33217949  0.97758443    -0.07810
N488        N  0.09854775  0.33926778  0.95632613    -0.62120
N489        N  0.04278089  0.32724613  0.04714113    -0.06800
N490        N  0.04430801  0.33117407  0.07769187    -0.59310
Mn491      Mn  0.02863696  0.35063341  0.97989325     1.20190
Mn492      Mn  0.05311436  0.28325363  0.02859330     1.10090
Cl493      Cl  0.01057122  0.29223947  0.98741443    -0.87280
C494        C  0.03379927  0.36017870  0.08060738     0.95050
C495        C  0.11973822  0.31604829  0.96107747     0.94850
N496        N  0.91347064  0.72622059  0.95861622    -0.07440
N497        N  0.89214034  0.70879585  0.97444331    -0.59560
N498        N  0.95499058  0.75968632  0.89943939    -0.07120
N499        N  0.96529343  0.76566218  0.86989382    -0.61680
N500        N  0.95910747  0.72976003  0.90742551    -0.06710
N501        N  0.97082425  0.71455672  0.88405471    -0.59530
N502        N  0.90550174  0.75595113  0.95540643    -0.06390
N503        N  0.87820576  0.75921011  0.97036146    -0.62040
C504        C  0.87031414  0.72936777  0.98169152     0.94740
C505        C  0.97481879  0.73694546  0.86088293     0.94520
N506        N  0.00347799  0.83029857  0.93633188    -0.07620
N507        N  0.02560208  0.83348733  0.91284077    -0.60130
N508        N  0.93029660  0.82606197  0.97075906    -0.05740
N509        N  0.90004834  0.82956483  0.97541536    -0.61390
N510        N  0.94703247  0.82735425  0.99720530    -0.07650
N511        N  0.92584138  0.82755270  0.02142439    -0.60400
N512        N  0.97553909  0.82768131  0.92216246    -0.05380
N513        N  0.97743862  0.83213846  0.89152630    -0.61470
Mn514      Mn  0.94102144  0.79273746  0.93656172     1.18440
C515        C  0.00817636  0.83522561  0.88452572     0.96820
C516        C  0.89606378  0.82927778  0.00689463     0.97490
N517        N  0.00961107  0.70022774  0.94988814    -0.07670
N518        N  0.02302363  0.68330190  0.92820772    -0.63980
N519        N  0.98156252  0.70746788  0.02359467    -0.06470
N520        N  0.97622283  0.69681217  0.05275397    -0.64650
N521        N  0.95999358  0.69587935  0.00408107    -0.07180
N522        N  0.93941497  0.67651536  0.01967752    -0.64240
N523        N  0.03115035  0.71172049  0.96958933    -0.06070
N524        N  0.05969628  0.70363942  0.96148812    -0.64930
Mn525      Mn  0.96023754  0.71179618  0.95462293     1.10660
C526        C  0.05446687  0.68599478  0.93565805     0.98050
C527        C  0.94984271  0.67771372  0.05012435     0.98120
N528        N  0.00150330  0.79912365  0.04442046    -0.07180
N529        N  0.99448170  0.81113412  0.07249994    -0.62560
N530        N  0.05866205  0.77194202  0.99685043    -0.06500
N531        N  0.08872581  0.76483118  0.00019053    -0.59290
N532        N  0.05527644  0.80246894  0.99111308    -0.07810
N533        N  0.08450018  0.81695283  0.99077498    -0.62120
N534        N  0.00858564  0.76922317  0.04903014    -0.06800
N535        N  0.00671220  0.76021726  0.07940819    -0.59310
Mn536      Mn  0.00243863  0.81788641  0.99239043     1.20190
Mn537      Mn  0.02010617  0.73953600  0.00981638     1.10090
Cl538      Cl  0.98120678  0.76589543  0.97345640    -0.87280
C539        C  0.99820581  0.78635992  0.09421762     0.95050
C540        C  0.10512214  0.79262592  0.99623098     0.94850
N541        N  0.55574124  0.75305784  0.01730860    -0.07440
N542        N  0.58369660  0.74220837  0.00821506    -0.59560
N543        N  0.49678064  0.76613495  0.07112155    -0.07120
N544        N  0.48987784  0.76338188  0.10124419    -0.61680
N545        N  0.48992452  0.74043474  0.05540001    -0.06710
N546        N  0.47843633  0.71821559  0.07682065    -0.59530
N547        N  0.56117566  0.77370799  0.03985941    -0.06390
N548        N  0.59172437  0.77664482  0.04700623    -0.62040
C549        C  0.60591574  0.75715251  0.02746333     0.94740
C550        C  0.47845416  0.73392450  0.10535562     0.94520
N551        N  0.47781158  0.85630554  0.05582617    -0.07620
N552        N  0.46389385  0.87691204  0.07322481    -0.60130
N553        N  0.55512550  0.84496722  0.04587142    -0.05740
N554        N  0.58621232  0.84362917  0.04744356    -0.61390
N555        N  0.54642375  0.86686472  0.02507065    -0.07650
N556        N  0.57212860  0.88003157  0.01087936    -0.60400
N557        N  0.48847433  0.83320823  0.07376821    -0.05380
N558        N  0.48263248  0.83791936  0.10377165    -0.61470
Mn559      Mn  0.52529535  0.80448236  0.05762004     1.18440
C560        C  0.47184486  0.86761268  0.10323506     0.96820
C561        C  0.59669304  0.86545159  0.02566803     0.97490
N562        N  0.44989651  0.74799809  0.98755191    -0.07670
N563        N  0.42358465  0.73569620  0.00229142    -0.63980
N564        N  0.50586864  0.78137565  0.93266966    -0.06470
N565        N  0.51526717  0.78579815  0.90313920    -0.64650
N566        N  0.51710841  0.75566457  0.94668523    -0.07180
N567        N  0.53432891  0.74138941  0.92474562    -0.64240
N568        N  0.44125951  0.76942083  0.96567047    -0.06070
N569        N  0.40984112  0.77014898  0.96381106    -0.64930
Mn570      Mn  0.50332827  0.74604817  0.00106366     1.10660
C571        C  0.39857768  0.74957584  0.98672196     0.98050
C572        C  0.53321182  0.76136838  0.89782604     0.98120
N573        N  0.51297873  0.87302189  0.96113558    -0.07180
N574        N  0.53710255  0.89233429  0.95270510    -0.62560
N575        N  0.43841436  0.84089556  0.97272722    -0.06500
N576        N  0.40882560  0.83045501  0.97796485    -0.59290
N577        N  0.44722880  0.86127426  0.99432970    -0.07810
N578        N  0.42389642  0.86449290  0.01482200    -0.62120
N579        N  0.50614918  0.85255610  0.93906280    -0.06800
N580        N  0.52620678  0.85761873  0.91479765    -0.59310
Mn581      Mn  0.49617106  0.86585411  0.00879646     1.20190
Mn582      Mn  0.47262674  0.81127438  0.95115922     1.10090
Cl583      Cl  0.50007389  0.80612566  0.00390009    -0.87280
C584        C  0.54561882  0.88245447  0.92404813     0.95050
C585        C  0.40044282  0.84440138  0.00478622     0.94850
N586        N  0.52640818  0.99098728  0.82524682    -0.07440
N587        N  0.54213624  0.96491583  0.82856711    -0.59560
N588        N  0.47425402  0.04842202  0.83805882    -0.07120
N589        N  0.44995551  0.06445813  0.84833521    -0.61680
N590        N  0.46339452  0.02269270  0.82453067    -0.06710
N591        N  0.43241275  0.01998669  0.82584596    -0.59530
N592        N  0.54043372  0.01427571  0.84086659    -0.06390
N593        N  0.56646745  0.00402395  0.85539537    -0.62040
C594        C  0.56724035  0.97311779  0.84699156     0.94740
C595        C  0.42396347  0.04575600  0.84063576     0.94520
N596        N  0.51812416  0.12071697  0.78361755    -0.07620
N597        N  0.49995657  0.14386169  0.77448104    -0.60130
N598        N  0.57374445  0.07914525  0.82173491    -0.05740
N599        N  0.59864718  0.07245924  0.83957549    -0.61390
N600        N  0.58311542  0.09134376  0.79399710    -0.07650
N601        N  0.61450668  0.09312882  0.79231707    -0.60400
N602        N  0.50847974  0.10856372  0.81153074    -0.05380
N603        N  0.48331293  0.12308712  0.82126695    -0.61470
Mn604      Mn  0.52457935  0.06331914  0.83033036     1.18440
C605        C  0.47796751  0.14478345  0.79755778     0.96820
C606        C  0.62388794  0.08174664  0.82103749     0.97490
N607        N  0.45151117  0.00776760  0.75537855    -0.07670
N608        N  0.42054814  0.00588216  0.76099968    -0.63980
N609        N  0.51989752  0.98003339  0.72890596    -0.06470
N610        N  0.52859924  0.95430998  0.71348077    -0.64650
N611        N  0.51324088  0.97096509  0.75846700    -0.07180
N612        N  0.51754701  0.94074288  0.76419909    -0.64240
N613        N  0.45784734  0.02342795  0.72818405    -0.06070
N614        N  0.43045296  0.03299951  0.71520784    -0.64930
Mn615      Mn  0.48869308  0.99769721  0.79113020     1.10660
C616        C  0.40717368  0.02158381  0.73614503     0.98050
C617        C  0.52710746  0.92991306  0.73649550     0.98120
N618        N  0.57842028  0.07022615  0.72559195    -0.07180
N619        N  0.60927390  0.07322679  0.72675009    -0.62560
N620        N  0.50067076  0.08855100  0.70831982    -0.06500
N621        N  0.47754487  0.11006051  0.70817805    -0.59290
N622        N  0.52769173  0.10469178  0.70907965    -0.07810
N623        N  0.52462555  0.13480972  0.70268534    -0.62120
N624        N  0.56764971  0.04336144  0.71363666    -0.06800
N625        N  0.59343927  0.02630357  0.70816824    -0.59310
Mn626      Mn  0.55173183  0.09748723  0.75357636     1.20190
Mn627      Mn  0.51100670  0.03351845  0.71663007     1.10090
Cl628      Cl  0.51923319  0.04756053  0.77276687    -0.87280
C629        C  0.61931202  0.04623047  0.71604217     0.95050
C630        C  0.49360504  0.13970348  0.70447889     0.94850
N631        N  0.47530964  0.18927947  0.94939910    -0.07440
N632        N  0.45884985  0.17888090  0.92444877    -0.59560
N633        N  0.53683168  0.20020149  0.00096964    -0.07120
N634        N  0.56507279  0.18849175  0.00194476    -0.61680
N635        N  0.51488767  0.17848943  0.00959052    -0.06710
N636        N  0.52808275  0.15094062  0.01532180    -0.59530
N637        N  0.49937856  0.20787902  0.93986375    -0.06390
N638        N  0.50032714  0.21039601  0.90898461    -0.62040
C639        C  0.47531178  0.19270088  0.89940126     0.94740
C640        C  0.55967150  0.15776155  0.01060114     0.94520
N641        N  0.54709917  0.29726098  0.00586050    -0.07620
N642        N  0.57388794  0.31235637  0.01660392    -0.60130
N643        N  0.51562565  0.27785669  0.93518074    -0.05740
N644        N  0.51573089  0.27487314  0.90400880    -0.61390
N645        N  0.49940638  0.30236853  0.94327821    -0.07650
N646        N  0.48712443  0.31585164  0.91664705    -0.60400
N647        N  0.55515016  0.26934384  0.99655950    -0.05380
N648        N  0.58540918  0.26426746  0.00106446    -0.61470
Mn649      Mn  0.52696313  0.23901957  0.96859764     1.18440
C650        C  0.59762600  0.29067266  0.01373114     0.96820
C651        C  0.49804054  0.29826956  0.89216390     0.97490
N652        N  0.45703977  0.19052515  0.05156904    -0.07670
N653        N  0.47311171  0.17561135  0.07429688    -0.63980
N654        N  0.40503556  0.22757491  0.00023291    -0.06470
N655        N  0.38282988  0.23921926  0.98138090    -0.64650
N656        N  0.41762588  0.20320125  0.98726763    -0.07180
N657        N  0.40420736  0.19828287  0.95927062    -0.64240
N658        N  0.44280673  0.21449029  0.06354680    -0.06070
N659        N  0.44772209  0.21550297  0.09458944    -0.64930
Mn660      Mn  0.46508212  0.18831730  0.00006830     1.10660
C661        C  0.46626810  0.19094852  0.10106087     0.98050
C662        C  0.38255829  0.22106223  0.95560176     0.98120
N663        N  0.43709606  0.31279551  0.98849717    -0.07180
N664        N  0.41747599  0.32598743  0.96647318    -0.62560
N665        N  0.45909640  0.28533427  0.06283766    -0.06500
N666        N  0.45706983  0.28175270  0.09362455    -0.59290
N667        N  0.48428587  0.30302376  0.05355515    -0.07810
N668        N  0.50099393  0.31041410  0.08006527    -0.62120
N669        N  0.41886770  0.29606684  0.00872790    -0.06800
N670        N  0.38861893  0.29870409  0.00317192    -0.59310
Mn671      Mn  0.49246644  0.30714545  0.99769547     1.20190
Mn672      Mn  0.43095530  0.25558499  0.03441337     1.10090
Cl673      Cl  0.47920379  0.24786882  0.00039064    -0.87280
C674        C  0.38687892  0.31660270  0.97669983     0.95050
C675        C  0.48282378  0.29695589  0.10500050     0.94850
N676        N  0.52530798  0.99573240  0.15525361    -0.07440
N677        N  0.54616641  0.97844587  0.14108606    -0.59560
N678        N  0.46216814  0.03474832  0.17617672    -0.07120
N679        N  0.43374846  0.04528481  0.17050697    -0.61680
N680        N  0.48392554  0.05345415  0.16201701    -0.06710
N681        N  0.47070934  0.07680744  0.14583063    -0.59530
N682        N  0.50452637  0.97732629  0.17108208    -0.06390
N683        N  0.51120925  0.94753060  0.16903780    -0.62040
C684        C  0.53761420  0.94856531  0.15093482     0.94740
C685        C  0.43911568  0.07136607  0.15118053     0.94520
N686        N  0.44902039  0.01560890  0.26892195    -0.07620
N687        N  0.42268588  0.02431248  0.28396866    -0.60130
N688        N  0.48422747  0.95244709  0.23680585    -0.05740
N689        N  0.48126631  0.92203820  0.23007852    -0.61390
N690        N  0.49614092  0.95641465  0.26557370    -0.07650
N691        N  0.50166268  0.92773591  0.27897068    -0.60400
N692        N  0.44073585  0.00838501  0.23976225    -0.05380
N693        N  0.41023478  0.01164919  0.23401746    -0.61470
Mn694      Mn  0.47265931  0.99302230  0.20539052     1.18440
C695        C  0.39866381  0.02157107  0.26132720     0.96820
C696        C  0.49225583  0.90638577  0.25621294     0.97490
N697        N  0.54287887  0.09207861  0.18260576    -0.07670
N698        N  0.53441273  0.11746695  0.16636662    -0.63980
N699        N  0.59443811  0.03787019  0.20768247    -0.06470
N700        N  0.61857473  0.01869438  0.21140875    -0.64650
N701        N  0.58081766  0.03339330  0.17984239    -0.07180
N702        N  0.59450471  0.01117221  0.16483004    -0.64240
N703        N  0.55399997  0.09925668  0.21084189    -0.06070
N704        N  0.55254392  0.13026607  0.21468776    -0.64930
Mn705      Mn  0.53339539  0.04445685  0.16846369     1.10660
C706        C  0.54078132  0.14114491  0.18633828     0.98050
C707        C  0.61702330  0.00122154  0.18485116     0.98120
N708        N  0.55895044  0.00047721  0.28624001    -0.07180
N709        N  0.57597750  0.97422770  0.29072613    -0.62560
N710        N  0.53793097  0.07856037  0.28105635    -0.06500
N711        N  0.53717457  0.10951234  0.28107450    -0.59290
N712        N  0.50969897  0.06474642  0.28745969    -0.07810
N713        N  0.48865976  0.08805768  0.28881713    -0.62120
N714        N  0.57934864  0.02382316  0.27748763    -0.06800
N715        N  0.60904353  0.01520046  0.27773533    -0.59310
Mn716      Mn  0.50327077  0.00908438  0.28034774     1.20190
Mn717      Mn  0.56725057  0.06059191  0.24494335     1.10090
Cl718      Cl  0.51904761  0.02683713  0.22540008    -0.87280
C719        C  0.60748481  0.98436305  0.28566986     0.95050
C720        C  0.50667765  0.11627678  0.28507695     0.94850
N721        N  0.32789067  0.02231315  0.03865400    -0.07440
N722        N  0.33675091  0.02146961  0.06841889    -0.59560
N723        N  0.34466616  0.07218514  0.97397924    -0.07120
N724        N  0.35612849  0.09620880  0.95558367    -0.61680
N725        N  0.32613299  0.08240909  0.99595037    -0.06710
N726        N  0.32486581  0.11320778  0.99371349    -0.59530
N727        N  0.35099078  0.01462733  0.01995640    -0.06390
N728        N  0.37701701  0.00991750  0.03712588    -0.62040
C729        C  0.36755571  0.01459452  0.06762373     0.94740
C730        C  0.34350439  0.12171380  0.96884610     0.94520
N731        N  0.30586591  0.01506763  0.90561801    -0.07620
N732        N  0.29793958  0.02907156  0.87835494    -0.60130
N733        N  0.33983509  0.97056590  0.96425468    -0.05740
N734        N  0.35442395  0.94913225  0.98201739    -0.61390
N735        N  0.31513948  0.95725715  0.94990174    -0.07650
N736        N  0.31280944  0.92670850  0.95649913    -0.60400
N737        N  0.33072808  0.02987677  0.91837515    -0.05380
N738        N  0.33995228  0.05451968  0.89999077    -0.61470
Mn739      Mn  0.34366319  0.02159034  0.96835290     1.18440
C740        C  0.31909674  0.05389978  0.87518148     0.96820
C741        C  0.33715996  0.92204039  0.97641414     0.97490
N742        N  0.25564913  0.08380682  0.00536355    -0.07670
N743        N  0.26038214  0.11464719  0.00383817    -0.63980
N744        N  0.23116387  0.01649994  0.04231812    -0.06470
N745        N  0.21461819  0.00769357  0.06888301    -0.64650
N746        N  0.25953273  0.02704778  0.05139027    -0.07180
N747        N  0.26351604  0.02549539  0.08234627    -0.64240
N748        N  0.23013025  0.07471543  0.98912039    -0.06070
N749        N  0.21725923  0.10067554  0.97559822    -0.64930
Mn750      Mn  0.29221971  0.05343356  0.02294483     1.10660
C751        C  0.23673511  0.12561473  0.98571420     0.98050
C752        C  0.23595598  0.01323966  0.09362662     0.98120
N753        N  0.24434967  0.95456116  0.96261988    -0.07180
N754        N  0.24785366  0.92418214  0.96468509    -0.62560
N755        N  0.21942359  0.02514056  0.93055319    -0.06500
N756        N  0.20785360  0.04526897  0.90795524    -0.59290
N757        N  0.23593547  0.00456935  0.91565053    -0.07810
N758        N  0.23459559  0.00802102  0.88481011    -0.62120
N759        N  0.22535773  0.96435947  0.98482618    -0.06800
N760        N  0.21642170  0.93865077  0.00343276    -0.59310
Mn761      Mn  0.27538832  0.98234732  0.93305035     1.20190
Mn762      Mn  0.22301122  0.02023317  0.98679720     1.10090
Cl763      Cl  0.28295051  0.01929051  0.97774268    -0.87280
C764        C  0.23057389  0.91348579  0.98944154     0.95050
C765        C  0.21771681  0.03334279  0.87935665     0.94850
N766        N  0.80503824  0.97313067  0.01091680    -0.07440
N767        N  0.80031963  0.95026918  0.03402138    -0.59560
N768        N  0.80288587  0.00602221  0.93654531    -0.07120
N769        N  0.80392705  0.00992570  0.90570225    -0.61680
N770        N  0.80388058  0.03307654  0.95113343    -0.06710
N771        N  0.80117899  0.05626680  0.92819565    -0.59530
N772        N  0.80564163  0.95878020  0.98371575    -0.06390
N773        N  0.80726227  0.92820365  0.98781056    -0.62040
C774        C  0.80203725  0.92185910  0.01873605     0.94740
C775        C  0.80151358  0.04085671  0.89944554     0.94520
N776        N  0.70213841  0.99180917  0.92792331    -0.07620
N777        N  0.68472783  0.00352038  0.90476657    -0.60130
N778        N  0.73262135  0.93394258  0.96914165    -0.05740
N779        N  0.73254750  0.90251674  0.96860907    -0.61390
N780        N  0.70455234  0.94256582  0.97872157    -0.07650
N781        N  0.68531789  0.91824730  0.98523163    -0.60400
N782        N  0.73126401  0.98693880  0.91807180    -0.05380
N783        N  0.73422920  0.99584937  0.88766997    -0.61470
Mn784      Mn  0.76847430  0.97085462  0.95154890     1.18440
C785        C  0.70481968  0.00556922  0.87992633     0.96820
C786        C  0.70285387  0.89357719  0.97912698     0.97490
N787        N  0.78160606  0.08185792  0.00670196    -0.07670
N788        N  0.79459384  0.11155665  0.00304794    -0.63980
N789        N  0.75557606  0.03472698  0.06685403    -0.06470
N790        N  0.74707889  0.03160183  0.09694434    -0.64650
N791        N  0.78385037  0.02407825  0.06192264    -0.07180
N792        N  0.79484386  0.01209750  0.08998298    -0.64240
N793        N  0.75134681  0.08420410  0.01357321    -0.06070
N794        N  0.74283243  0.11366071  0.01481124    -0.64930
Mn795      Mn  0.79720159  0.02858849  0.00779699     1.10660
C796        C  0.76949938  0.13108371  0.00819989     0.98050
C797        C  0.77110668  0.01728143  0.11193062     0.98120
N798        N  0.67747523  0.98538531  0.02821379    -0.07180
N799        N  0.66022509  0.96621028  0.04804537    -0.62560
N800        N  0.68836569  0.05688470  0.99317077    -0.06500
N801        N  0.67661093  0.08492619  0.98939182    -0.59290
N802        N  0.67380427  0.03668964  0.97457756    -0.07810
N803        N  0.65110206  0.05041160  0.95787982    -0.62120
N804        N  0.69783734  0.00244348  0.04455150    -0.06800
N805        N  0.69824905  0.99302095  0.07424838    -0.59310
Mn806      Mn  0.68786437  0.98860266  0.97697029     1.20190
Mn807      Mn  0.72268731  0.04472538  0.02910093     1.10090
Cl808      Cl  0.74446054  0.00860250  0.99108189    -0.87280
C809        C  0.67346322  0.97243573  0.07720235     0.95050
C810        C  0.65364794  0.08086120  0.96721759     0.94850
N811        N  0.97350837  0.86119284  0.50660448    -0.07440
N812        N  0.95273896  0.86192165  0.52986553    -0.59560
N813        N  0.02573876  0.86888110  0.44426975    -0.07120
N814        N  0.04185381  0.87345292  0.41739777    -0.61680
N815        N  0.99721803  0.85652692  0.43865536    -0.06710
N816        N  0.99288466  0.85325273  0.40814614    -0.59530
N817        N  0.99978109  0.87788131  0.51336333    -0.06390
N818        N  0.99711056  0.89026024  0.54169677    -0.62040
C819        C  0.96777047  0.87982970  0.55176728     0.94740
C820        C  0.02059011  0.86365445  0.39515309     0.94520
N821        N  0.09552573  0.81831736  0.48657087    -0.07620
N822        N  0.11439186  0.80395359  0.46780862    -0.60130
N823        N  0.06385215  0.86364957  0.53818698    -0.05740
N824        N  0.06962365  0.88871032  0.55489710    -0.61390
N825        N  0.07277466  0.83789910  0.55335652    -0.07650
N826        N  0.08560952  0.84511352  0.58134239    -0.60400
N827        N  0.08822943  0.84586504  0.47361408    -0.05380
N828        N  0.10496032  0.85169697  0.44710004    -0.61470
Mn829      Mn  0.04501321  0.86604723  0.49161704     1.18440
C830        C  0.12198768  0.82510003  0.44421788     0.96820
C831        C  0.08370664  0.87720913  0.58132002     0.97490
N832        N  0.97526512  0.78767459  0.43685534    -0.07670
N833        N  0.96664676  0.79156559  0.40671785    -0.63980
N834        N  0.95519987  0.76352234  0.50929458    -0.06470
N835        N  0.92973108  0.74731387  0.52179844    -0.64650
N836        N  0.94767282  0.79315224  0.50404314    -0.07180
N837        N  0.91867166  0.79815207  0.51340029    -0.64240
N838        N  0.99069368  0.76123574  0.44182545    -0.06070
N839        N  0.99293209  0.74700135  0.41376150    -0.64930
Mn840      Mn  0.97264375  0.82506515  0.47171667     1.10660
C841        C  0.97764869  0.76657549  0.39193274     0.98050
C842        C  0.90720513  0.76984568  0.52471980     0.98120
N843        N  0.04425806  0.76745600  0.55988613    -0.07180
N844        N  0.04550750  0.77065109  0.59081754    -0.62560
N845        N  0.06041153  0.74162319  0.48180740    -0.06500
N846        N  0.07920701  0.73129170  0.45834721    -0.59290
N847        N  0.07955957  0.75120622  0.50460757    -0.07810
N848        N  0.10948161  0.74603218  0.49912368    -0.62120
N849        N  0.01827024  0.75146346  0.55046954    -0.06800
N850        N  0.00033363  0.74476865  0.57647687    -0.59310
Mn851      Mn  0.07321196  0.79397624  0.52727620     1.20190
Mn852      Mn  0.00613984  0.75121913  0.49500171     1.10090
Cl853      Cl  0.02396224  0.80871239  0.49644785    -0.87280
C854        C  0.01839570  0.75628934  0.60142830     0.95050
C855        C  0.11035089  0.73425951  0.47021252     0.94850
N856        N  0.83488909  0.97110240  0.54425469    -0.07440
N857        N  0.84525203  0.94468543  0.55755056    -0.59560
N858        N  0.83990881  0.04500130  0.57323644    -0.07120
N859        N  0.84767580  0.06707035  0.59379558    -0.61680
N860        N  0.81760469  0.02535919  0.58520263    -0.06710
N861        N  0.80925262  0.03368332  0.61357583    -0.59530
N862        N  0.85880690  0.98959947  0.53379356    -0.06390
N863        N  0.88599965  0.97595602  0.53927426    -0.62040
C864        C  0.87707766  0.94791572  0.55392480     0.94740
C865        C  0.82787720  0.05950955  0.61870117     0.94520
N866        N  0.82999842  0.09862226  0.48848060    -0.07620
N867        N  0.82084032  0.12754501  0.49074547    -0.60130
N868        N  0.86132135  0.03090810  0.47342269    -0.05740
N869        N  0.87850462  0.00771243  0.46354469    -0.61390
N870        N  0.84030513  0.03883855  0.45143224    -0.07650
N871        N  0.84290717  0.02119184  0.42629735    -0.60400
N872        N  0.84607556  0.08992919  0.51397202    -0.05380
N873        N  0.84698912  0.11293877  0.53470289    -0.61470
Mn874      Mn  0.85328128  0.03992146  0.52372867     1.18440
C875        C  0.83066139  0.13605551  0.51949937     0.96820
C876        C  0.86669414  0.00170740  0.43428795     0.97490
N877        N  0.74921753  0.00875504  0.57640024    -0.07670
N878        N  0.74785460  0.01003727  0.60739738    -0.63980
N879        N  0.73857544  0.97145761  0.51247292    -0.06470
N880        N  0.72255259  0.94561947  0.50194829    -0.64650
N881        N  0.76321267  0.96187877  0.52927294    -0.07180
N882        N  0.76484579  0.93111436  0.53088559    -0.64240
N883        N  0.73162588  0.02975620  0.56171977    -0.06070
N884        N  0.71914290  0.04758716  0.58424836    -0.64930
Mn885      Mn  0.79130659  0.99116617  0.55791251     1.10660
C886        C  0.72969550  0.03420029  0.61291633     0.98050
C887        C  0.73964985  0.92074281  0.51416317     0.98120
N888        N  0.76800037  0.03549479  0.43933222    -0.07180
N889        N  0.77211225  0.02863834  0.40948810    -0.62560
N890        N  0.73619097  0.08157461  0.49807760    -0.06500
N891        N  0.72070651  0.10563955  0.51023943    -0.59290
N892        N  0.75856962  0.09368404  0.47853980    -0.07810
N893        N  0.75785458  0.12498069  0.47620447    -0.62120
N894        N  0.74243967  0.02085289  0.45196591    -0.06800
N895        N  0.72853615  0.00292746  0.42962275    -0.59310
Mn896      Mn  0.79958077  0.06674276  0.46325139     1.20190
Mn897      Mn  0.73407111  0.02641852  0.50617717     1.10090
Cl898      Cl  0.79404343  0.03108672  0.51241495    -0.87280
C899        C  0.74789643  0.00821911  0.40339221     0.95050
C900        C  0.73451767  0.13280809  0.49591071     0.94850
N901        N  0.19637040  0.93872745  0.49455536    -0.07440
N902        N  0.18629864  0.92213089  0.47043189    -0.59560
N903        N  0.21585806  0.96593278  0.56738657    -0.07120
N904        N  0.21825756  0.97330785  0.59769875    -0.61680
N905        N  0.18843707  0.97445533  0.55527576    -0.06710
N906        N  0.17188739  0.98789173  0.57705788    -0.59530
N907        N  0.22236776  0.92737537  0.50741323    -0.06390
N908        N  0.22981929  0.90204516  0.49257475    -0.62040
C909        C  0.20791656  0.89981569  0.46922665     0.94740
C910        C  0.19033215  0.98658307  0.60325219     0.94520
N911        N  0.29927657  0.01204044  0.54660771    -0.07620
N912        N  0.30568010  0.03335339  0.56920274    -0.59410
N913        N  0.29508937  0.94409108  0.50911666    -0.05740
N914        N  0.29629655  0.91350366  0.50521734    -0.61390
N915        N  0.29857724  0.96072853  0.48224273    -0.07650
N916        N  0.29741493  0.93935716  0.45859433    -0.60400
N917        N  0.28657569  0.98628936  0.56114256    -0.05380
N918        N  0.28571235  0.98848921  0.59220269    -0.61470
Mn919      Mn  0.25503052  0.95515525  0.53720421     1.18440
C920        C  0.29773351  0.01762121  0.59773138     0.96820
C921        C  0.29624305  0.90919137  0.47385247     0.97490
N922        N  0.16890169  0.03041408  0.51640496    -0.07670
N923        N  0.14565433  0.04036433  0.53387298    -0.63980
N924        N  0.18864042  0.02174740  0.44345000    -0.06470
N925        N  0.18651725  0.02686661  0.41292084    -0.64650
N926        N  0.17430460  0.99492274  0.45275157    -0.07180
N927        N  0.16202053  0.98051115  0.42734296    -0.64240
N928        N  0.18667325  0.05434504  0.50505439    -0.06070
N929        N  0.17614009  0.08124081  0.51396212    -0.64930
Mn930      Mn  0.18001838  0.98320144  0.50464338     1.10660
C931        C  0.15051346  0.07226328  0.53172889     0.98050
C932        C  0.17023623  0.00149068  0.40270841     0.98120
N933        N  0.28217735  0.02713409  0.43670894    -0.07180
N934        N  0.29469094  0.02175705  0.40805822    -0.62560
N935        N  0.25322868  0.07695971  0.49414396    -0.06500
N936        N  0.24650536  0.10609340  0.49987191    -0.59290
N937        N  0.28330731  0.07095344  0.49885159    -0.07810
N938        N  0.29822911  0.09819449  0.50776541    -0.62120
N939        N  0.25565241  0.04225215  0.43214541    -0.06800
N940        N  0.24967427  0.04761517  0.40161025    -0.59310
Mn941      Mn  0.29439659  0.01749769  0.49015708     1.20190
Mn942      Mn  0.22116996  0.04892300  0.46939330     1.10090
Cl943      Cl  0.23811368  0.00108436  0.50038073    -0.87280
C944        C  0.27373144  0.03495908  0.38633464     0.95050
C945        C  0.27408521  0.11963105  0.50867313     0.94850
N946        N  0.91612637  0.19416369  0.51257008    -0.07440
N947        N  0.89634120  0.19478517  0.53699658    -0.59560
N948        N  0.96397057  0.19308026  0.44518615    -0.07120
N949        N  0.97722328  0.18433817  0.41832205    -0.61680
N950        N  0.96852066  0.17163594  0.46785790    -0.06710
N951        N  0.98461258  0.14821338  0.45745250    -0.59530
N952        N  0.90874270  0.21564691  0.49060017    -0.06390
N953        N  0.88422634  0.23119611  0.50018313    -0.62040
C954        C  0.87711902  0.21876480  0.52941972     0.94740
C955        C  0.98977486  0.15586696  0.42659177     0.94520
N956        N  0.99527144  0.28985512  0.44218633    -0.07620
N957        N  0.01022944  0.30414179  0.41695319    -0.60130
N958        N  0.92428589  0.28320971  0.47020188    -0.05740
N959        N  0.89343537  0.28599442  0.46750870    -0.61390
N960        N  0.93706840  0.30310870  0.49069455    -0.07650
N961        N  0.91326516  0.31844531  0.50400130    -0.60400
N962        N  0.97911109  0.26460229  0.43194244    -0.05380
N963        N  0.98240564  0.26093909  0.40137044    -0.61470
Mn964      Mn  0.94396963  0.23864886  0.45831431     1.18440
C965        C  0.00184803  0.28519761  0.39181867     0.96820
C966        C  0.88595798  0.30738591  0.48859938     0.97490
N967        N  0.01561365  0.17508210  0.52042876    -0.07670
N968        N  0.03210756  0.15354676  0.50695034    -0.63980
N969        N  0.98208292  0.21422409  0.57765351    -0.06470
N970        N  0.96963763  0.22475801  0.60355415    -0.64650
N971        N  0.96322811  0.19209696  0.56588470    -0.07180
N972        N  0.93816745  0.18650046  0.58414047    -0.64240
N973        N  0.03479144  0.19707200  0.53214416    -0.06070
N974        N  0.06467153  0.19097975  0.52740316    -0.64930
Mn975      Mn  0.96529465  0.18149405  0.51699845     1.10660
C976        C  0.06267708  0.16399141  0.51139280     0.98050
C977        C  0.94204521  0.20747763  0.60730498     0.98120
N978        N  0.98990835  0.30493019  0.55347686    -0.07180
N979        N  0.98032125  0.32522579  0.57540965    -0.62560
N980        N  0.05274817  0.26668077  0.52318401    -0.06500
N981        N  0.08315054  0.26083400  0.52332718    -0.59290
N982        N  0.04576529  0.28951667  0.50238713    -0.07810
N983        N  0.07266349  0.29931048  0.48715512    -0.62120
N984        N  0.00261478  0.28112101  0.56931915    -0.06800
N985        N  0.00252897  0.28410601  0.60021483    -0.59310
Mn986      Mn  0.99202644  0.29998046  0.49702778     1.20190
Mn987      Mn  0.01863556  0.23947020  0.55085863     1.10090
Cl988      Cl  0.98015561  0.24046174  0.50557835    -0.87280
C989        C  0.98853736  0.31114209  0.60466977     0.95050
C990        C  0.09570080  0.28090175  0.50096056     0.94850
N991        N  0.03482563  0.93371507  0.29385070    -0.07440
N992        N  0.03683688  0.90784578  0.31196240    -0.59560
N993        N  0.08954701  0.98183104  0.26310583    -0.07120
N994        N  0.12076944  0.98719965  0.26022848    -0.61680
N995        N  0.08023548  0.98930337  0.29172816    -0.06710
N996        N  0.10391574  0.00065059  0.30844502    -0.59530
N997        N  0.04137055  0.92733588  0.26419962    -0.06390
N998        N  0.04724284  0.89708476  0.26125889    -0.62040
C999        C  0.04462211  0.88538789  0.29129946     0.94740
C1000       C  0.12873794  0.99974819  0.28861955     0.94520
N1001       N  0.05450624  0.02546695  0.19491736    -0.07620
N1002       N  0.07891512  0.04732531  0.19839926    -0.60130
N1003       N  0.01557418  0.94781392  0.19953910    -0.05740
N1004       N  0.00616086  0.91757473  0.20216043    -0.61390
N1005       N  0.99141366  0.96653590  0.19500773    -0.07650
N1006       N  0.96453207  0.94783599  0.19644868    -0.60400
N1007       N  0.06730870  0.99777118  0.19345475    -0.05380
N1008       N  0.09841311  0.00030518  0.19199388    -0.61470
Mn1009     Mn  0.05347986  0.96365469  0.22925846     1.18440
C1010       C  0.10673042  0.03070651  0.19585716     0.96820
C1011       C  0.97432974  0.91709016  0.20022195     0.97490
N1012       N  0.03499560  0.03236879  0.32555558    -0.07670
N1013       N  0.05440873  0.04786180  0.34531643    -0.63980
N1014       N  0.96328819  0.99703333  0.31307272    -0.06470
N1015       N  0.93430902  0.98950517  0.32316885    -0.64650
N1016       N  0.98350550  0.97658989  0.32458968    -0.07180
N1017       N  0.96863195  0.95481327  0.34334679    -0.64240
N1018       N  0.01456704  0.05187471  0.31303656    -0.06070
N1019       N  0.01972580  0.08076864  0.32294622    -0.64930
Mn1020     Mn  0.03346800  0.98239835  0.31039710     1.10660
C1021       C  0.04477038  0.07834892  0.34284417     0.98050
C1022       C  0.93768143  0.96297858  0.34164764     0.98120
N1023       N  0.94531428  0.01819047  0.21930103    -0.07180
N1024       N  0.91756869  0.00966165  0.20543400    -0.62560
N1025       N  0.99097418  0.07757577  0.25012640    -0.06500
N1026       N  0.98994415  0.10770538  0.25737421    -0.59290
N1027       N  0.99977955  0.07428464  0.22039126    -0.07810
N1028       N  0.00478253  0.10338075  0.20669349    -0.62120
N1029       N  0.93991308  0.02407693  0.24929391    -0.06800
N1030       N  0.90953567  0.02026843  0.25663277    -0.59310
Mn1031     Mn  0.99804273  0.02194045  0.20394187     1.20190
Mn1032     Mn  0.97702186  0.03762496  0.28175341     1.10090
Cl1033     Cl  0.01518854  0.00150306  0.25627108    -0.87280
C1034       C  0.89553477  0.01118279  0.22944899     0.95050
C1035       C  0.99880770  0.12407687  0.23054151     0.94850
N1036       N  0.07527656  0.08420617  0.67798337    -0.07440
N1037       N  0.10623083  0.08164078  0.67594205    -0.59560
N1038       N  0.00637470  0.11533693  0.66723999    -0.07120
N1039       N  0.98410362  0.13450593  0.65803468    -0.61680
N1040       N  0.02138349  0.12633482  0.69239827    -0.06710
N1041       N  0.00907125  0.15282949  0.70134602    -0.59530
N1042       N  0.06032334  0.07144643  0.65381796    -0.06390
N1043       N  0.08106349  0.05882840  0.63497707    -0.62040
C1044       C  0.10952749  0.06590914  0.64910736     0.94740
C1045       C  0.98614301  0.15768506  0.67943507     0.94520
N1046       N  0.94301874  0.03476286  0.67499883    -0.07620
N1047       N  0.91395611  0.03859365  0.68457766    -0.60130
N1048       N  0.01367650  0.01431139  0.64730018    -0.05740
N1049       N  0.03816058  0.00164787  0.63331398    -0.61390
N1050       N  0.99925488  0.99271037  0.66619086    -0.07650
N1051       N  0.01307246  0.96541254  0.66513961    -0.60400
N1052       N  0.95514198  0.06105082  0.66129850    -0.05380
N1053       N  0.93420175  0.08394184  0.66343639    -0.61470
Mn1054     Mn  0.00827784  0.06570311  0.65517055     1.18440
C1055       C  0.90849817  0.06923658  0.67839645     0.96820
C1056       C  0.03752188  0.97112875  0.64494418     0.97490
N1057       N  0.03182219  0.10963900  0.76283825    -0.07670
N1058       N  0.03062577  0.14014480  0.76451459    -0.63980
N1059       N  0.06629975  0.04232774  0.76809626    -0.06470
N1060       N  0.09087673  0.02458876  0.77748668    -0.64650
N1061       N  0.07774182  0.06449296  0.74777870    -0.07180
N1062       N  0.10824423  0.06306037  0.74315877    -0.64240
N1063       N  0.00808822  0.09423609  0.77755933    -0.06070
N1064       N  0.98811860  0.11622459  0.78745642    -0.64930
Mn1065     Mn  0.05169237  0.09610096  0.72039417     1.10660
C1066       C  0.00343291  0.14520214  0.77897121     0.98050
C1067       C  0.11690125  0.03844000  0.76126007     0.98120
N1068       N  0.99701198  0.97576045  0.73718622    -0.07180
N1069       N  0.99724147  0.94500342  0.73424682    -0.62560
N1070       N  0.95492384  0.03392073  0.77083889    -0.06500
N1071       N  0.93054381  0.04343073  0.78828690    -0.59290
N1072       N  0.94315206  0.01854317  0.74628996    -0.07810
N1073       N  0.91188068  0.01616827  0.74708094    -0.62120
N1074       N  0.01110320  0.98494119  0.76362713    -0.06800
N1075       N  0.02188827  0.95913264  0.77921295    -0.59310
Mn1076     Mn  0.97069145  0.00502969  0.70554806     1.20190
Mn1077     Mn  0.01005429  0.03882622  0.77326001     1.10090
Cl1078     Cl  0.01021429  0.05112828  0.71406888    -0.87280
C1079       C  0.01303571  0.93442752  0.75992731     0.95050
C1080       C  0.90365852  0.03160897  0.77295154     0.94850
C1081       C  0.99693535  0.26109348  0.25747486    -0.00750
C1082       C  0.98986584  0.28590920  0.23599107    -0.00750
C1083       C  0.73830324  0.98201160  0.24798372    -0.00750
C1084       C  0.76312246  0.99236110  0.26797787    -0.00750
C1085       C  0.97489757  0.76504265  0.23194054    -0.00750
C1086       C  0.96295206  0.78831193  0.25136479    -0.00750
C1087       C  0.26371703  0.03432843  0.22766839    -0.00750
C1088       C  0.23979160  0.04083858  0.24932789    -0.00750
C1089       C  0.25147435  0.27182553  0.49440931    -0.00750
C1090       C  0.22852997  0.24696830  0.49501783    -0.00750
C1091       C  0.72916912  0.29427743  0.51451217    -0.00750
C1092       C  0.75214287  0.27116715  0.51631446    -0.00750
C1093       C  0.27137598  0.75381869  0.45835170    -0.00750
C1094       C  0.24624765  0.77405086  0.45228905    -0.00750
C1095       C  0.26919951  0.04267501  0.75209596    -0.00750
C1096       C  0.24925965  0.04264028  0.72530808    -0.00750
C1097       C  0.23228199  0.27979146  0.96986709    -0.00750
C1098       C  0.25955424  0.26315649  0.96397193    -0.00750
C1099       C  0.23985873  0.76025711  0.01007942    -0.00750
C1100       C  0.26545935  0.78177167  0.01457619    -0.00750
C1101       C  0.48840066  0.74572523  0.25886045    -0.00750
C1102       C  0.48274319  0.76766826  0.23412057    -0.00750
C1103       C  0.48470638  0.24926594  0.23769001    -0.00750
C1104       C  0.47596555  0.27147462  0.25940112    -0.00750
C1105       C  0.49132239  0.29056763  0.73044675    -0.00750
C1106       C  0.48406056  0.26913872  0.75574836    -0.00750
C1107       C  0.99638239  0.29605089  0.76457236    -0.00750
C1108       C  0.99011768  0.27808740  0.73800974    -0.00750
C1109       C  0.75757224  0.28845009  0.01932122    -0.00750
C1110       C  0.73449828  0.26481032  0.01314820    -0.00750
C1111       C  0.26810492  0.56774443  0.26158277    -0.00750
C1112       C  0.24379508  0.56841212  0.23854262    -0.00750
C1113       C  0.73473742  0.50613573  0.28146118    -0.00750
C1114       C  0.75556974  0.50223855  0.25648591    -0.00750
C1115       C  0.27370770  0.48379150  0.73689583    -0.00750
C1116       C  0.24994051  0.48402580  0.76002779    -0.00750
C1117       C  0.01836539  0.77979567  0.75789766    -0.00750
C1118       C  0.01386030  0.80109711  0.73202218    -0.00750
C1119       C  0.74767327  0.05550347  0.76816609    -0.00750
C1120       C  0.77095517  0.05746232  0.74456043    -0.00750
C1121       C  0.76726607  0.77028141  0.03403853    -0.00750
C1122       C  0.74326947  0.79190038  0.03269799    -0.00750
C1123       C  0.74867654  0.55854001  0.75777155    -0.00750
C1124       C  0.77559135  0.56340196  0.77674590    -0.00750
C1125       C  0.75052579  0.76585220  0.53176040    -0.00750
C1126       C  0.77127348  0.79141451  0.52347418    -0.00750
C1127       C  0.53156786  0.77101915  0.73850593    -0.00750
C1128       C  0.53469219  0.79281710  0.76258630    -0.00750
C1129       C  0.86875662  0.03747770  0.77786633    -0.07440
C1130       C  0.85812771  0.06869430  0.77847689    -0.18570
C1131       C  0.82660056  0.07615168  0.76856025     0.09760
C1132       C  0.80572354  0.05249000  0.75484252    -0.07370
C1133       C  0.81630691  0.02125467  0.75583346    -0.18600
C1134       C  0.84594900  0.01332575  0.76915810     0.09790
S1135       S  0.81442725  0.11629800  0.77246324    -0.33570
S1136       S  0.85478330  0.97174836  0.77111258    -0.33570
H1137       H  0.87887800  0.97485236  0.79447625     0.27800
H1138       H  0.84143835  0.12752094  0.78944371     0.27790
H1139       H  0.87513690  0.08758554  0.78468744     0.18380
H1140       H  0.80134218  0.00246565  0.74601689     0.18390
C1141       C  0.99360378  0.17942378  0.77518270    -0.07440
C1142       C  0.02025072  0.20122410  0.77297971    -0.18570
C1143       C  0.02033511  0.22894496  0.75366303     0.09760
C1144       C  0.99135875  0.24174518  0.74312063    -0.07370
C1145       C  0.96332962  0.22170323  0.74803623    -0.18600
C1146       C  0.96460604  0.19015166  0.76188562     0.09790
S1147       S  0.05893435  0.24598469  0.74227635    -0.33570
S1148       S  0.92869414  0.16527265  0.76286507    -0.33570
H1149       H  0.94319059  0.13878458  0.75070745     0.27800
H1150       H  0.04925169  0.25728785  0.71218433     0.27790
H1151       H  0.04316506  0.19422566  0.78242924     0.18380
H1152       H  0.94035198  0.23049639  0.74119571     0.18390
C1153       C  0.15195920  0.03296801  0.76172931    -0.07440
C1154       C  0.17047318  0.06162401  0.76343039    -0.18570
C1155       C  0.19927965  0.06722041  0.74695654     0.09760
C1156       C  0.21338966  0.04223002  0.73098151    -0.07370
C1157       C  0.19561195  0.01285529  0.73007032    -0.18600
C1158       C  0.16550291  0.00797252  0.74543220     0.09790
S1159       S  0.21583876  0.10751430  0.74731001    -0.33570
S1160       S  0.14678863  0.96867702  0.74585885    -0.33570
H1161       H  0.12601546  0.97344058  0.77132762     0.27800
H1162       H  0.24482794  0.10264153  0.73228069     0.27790
H1163       H  0.16036972  0.08157970  0.77488985     0.18380
H1164       H  0.20634825  0.99283580  0.71943374     0.18390
C1165       C  0.01543812  0.89921609  0.76460995    -0.07440
C1166       C  0.98634743  0.88164978  0.76101673    -0.18570
C1167       C  0.98450507  0.85096042  0.74879397     0.09760
C1168       C  0.01291682  0.83619417  0.73969213    -0.07370
C1169       C  0.04223389  0.85311116  0.74507942    -0.18600
C1170       C  0.04379604  0.88384215  0.75778631     0.09790
S1171       S  0.94450054  0.83318909  0.74531525    -0.33570
S1172       S  0.08254865  0.90350133  0.76175482    -0.33570
H1173       H  0.07327118  0.92453633  0.78493821     0.27800
H1174       H  0.95276587  0.80521846  0.73115460     0.27790
H1175       H  0.96421471  0.89314975  0.76547733     0.18380
H1176       H  0.06430151  0.84235223  0.73913039     0.18390
C1177       C  0.14180728  0.03788620  0.20612521    -0.07440
C1178       C  0.15286138  0.06498310  0.22258655    -0.18570
C1179       C  0.18425902  0.06706797  0.23693025     0.09760
C1180       C  0.20441689  0.04042864  0.23789708    -0.07370
C1181       C  0.19256190  0.01347996  0.22229536    -0.18600
C1182       C  0.16439022  0.01337195  0.20392302     0.09790
S1183       S  0.19846853  0.10419275  0.25311883    -0.33570
S1184       S  0.16074542  0.98166523  0.17600725    -0.33570
H1185       H  0.14661762  0.00061298  0.15190474     0.27800
H1186       H  0.17166366  0.12163696  0.24454050     0.27790
H1187       H  0.13702984  0.08446155  0.22433270     0.18380
H1188       H  0.20721928  0.99296804  0.22168847     0.18390
C1189       C  0.95184971  0.82186929  0.23783762    -0.07440
C1190       C  0.94954837  0.84802765  0.25775609    -0.18570
C1191       C  0.95263145  0.88018571  0.24595648     0.09760
C1192       C  0.95578413  0.88735348  0.21272939    -0.07370
C1193       C  0.94979912  0.86163038  0.19268590    -0.18600
C1194       C  0.94410393  0.83005176  0.20530113     0.09790
S1195       S  0.95439807  0.91104402  0.27461402    -0.33570
S1196       S  0.91727754  0.80544650  0.18222183    -0.33570
H1197       H  0.90584386  0.78708491  0.20872938     0.27800
H1198       H  0.94263218  0.93486087  0.25395865     0.27790
H1199       H  0.94641036  0.84358344  0.28295318     0.18380
H1200       H  0.94834061  0.86624480  0.16711941     0.18390
C1201       C  0.86019468  0.00475293  0.22871344    -0.07440
C1202       C  0.84101951  0.03104604  0.23181110    -0.18570
C1203       C  0.80967599  0.02784740  0.24418329     0.09760
C1204       C  0.79688077  0.99762290  0.25480069    -0.07370
C1205       C  0.81581340  0.97116921  0.25088815    -0.18600
C1206       C  0.84671551  0.97432699  0.23746804     0.09790
S1207       S  0.78695634  0.06289526  0.24725343    -0.33570
S1208       S  0.86876407  0.93880466  0.23406193    -0.33570
H1209       H  0.88903111  0.95096533  0.20947680     0.27800
H1210       H  0.80839993  0.08411139  0.23066817     0.27790
H1211       H  0.85150831  0.05457230  0.22636194     0.18380
H1212       H  0.80630913  0.94770305  0.25821379     0.18390
C1213       C  0.99860242  0.16020578  0.22925514    -0.07440
C1214       C  0.96982773  0.17454627  0.23681795    -0.18570
C1215       C  0.96880196  0.20692275  0.24522183     0.09760
C1216       C  0.99721133  0.22629084  0.24704455    -0.07370
C1217       C  0.02583394  0.21220906  0.23832123    -0.18600
C1218       C  0.02686821  0.17993634  0.22976531     0.09790
S1219       S  0.93098182  0.22307736  0.25478016    -0.33570
S1220       S  0.06554534  0.16466574  0.22242555    -0.33570
H1221       H  0.05471192  0.14228139  0.20034403     0.27800
H1222       H  0.91163934  0.19673104  0.24575688     0.27790
H1223       H  0.94802373  0.15975361  0.23754778     0.18380
H1224       H  0.04796723  0.22618299  0.23825832     0.18390
C1225       C  0.98706649  0.29448946  0.70456237    -0.07440
C1226       C  0.01450870  0.30812610  0.68921880    -0.18570
C1227       C  0.01379957  0.32121344  0.65765667     0.09760
C1228       C  0.98528883  0.32023076  0.63911326    -0.07370
C1229       C  0.95706615  0.31057257  0.65580002    -0.18600
C1230       C  0.95761000  0.29833423  0.68817596     0.09790
S1231       S  0.05140637  0.33532417  0.64049283    -0.33570
S1232       S  0.92061155  0.28584047  0.70755498    -0.33570
H1233       H  0.90025659  0.29486749  0.68232706     0.27800
H1234       H  0.03791237  0.35267704  0.61484645     0.27790
H1235       H  0.03723392  0.30781598  0.70149855     0.18380
H1236       H  0.93489383  0.30926299  0.64243123     0.18390
C1237       C  0.78711769  0.28305827  0.51157988    -0.07440
C1238       C  0.79777377  0.28824622  0.48003141    -0.18570
C1239       C  0.82796861  0.30243407  0.47270470     0.09760
C1240       C  0.85095240  0.30857385  0.49711413    -0.07370
C1241       C  0.84030327  0.30470982  0.52889891    -0.18600
C1242       C  0.80841675  0.29347618  0.53631392     0.09790
S1243       S  0.83628910  0.31095261  0.43095289    -0.33570
S1244       S  0.79633508  0.29104228  0.57752547    -0.33570
H1245       H  0.82381446  0.30649739  0.59009533     0.27800
H1246       H  0.85991681  0.33500505  0.43627167     0.27790
H1247       H  0.78218516  0.28118839  0.46064141     0.18380
H1248       H  0.85739395  0.30874824  0.54794369     0.18390
C1249       C  0.19335800  0.25442495  0.49751091    -0.07440
C1250       C  0.17284979  0.24975609  0.47105052    -0.18570
C1251       C  0.14218790  0.26243243  0.46915578     0.09760
C1252       C  0.13060251  0.27984548  0.49450820    -0.07370
C1253       C  0.15058035  0.28367002  0.52130121    -0.18600
C1254       C  0.18090587  0.27069258  0.52359823     0.09790
S1255       S  0.11807065  0.25390213  0.43453456    -0.33570
S1256       S  0.20020440  0.27343953  0.56214248    -0.33570
H1257       H  0.22856802  0.25922667  0.55504715     0.27800
H1258       H  0.10097469  0.28185589  0.43514464     0.27790
H1259       H  0.18064883  0.23669340  0.45113768     0.18380
H1260       H  0.14122205  0.29471192  0.54208615     0.18390
C1261       C  0.00049506  0.26837403  0.29277587    -0.07440
C1262       C  0.97433616  0.28099076  0.30808039    -0.18570
C1263       C  0.97685421  0.29339713  0.33866578     0.09760
C1264       C  0.00536327  0.29090752  0.35673156    -0.07370
C1265       C  0.03182442  0.27872641  0.34160905    -0.18600
C1266       C  0.03006776  0.26848942  0.30971396     0.09790
S1267       S  0.94156473  0.30983558  0.35481912    -0.33570
S1268       S  0.06604540  0.25637563  0.29121328    -0.33570
H1269       H  0.08730539  0.26554411  0.31565493     0.27800
H1270       H  0.95786261  0.32791536  0.37787820     0.27790
H1271       H  0.95169907  0.28203837  0.29566494     0.18380
H1272       H  0.05340627  0.27550173  0.35547117     0.18390
C1273       C  0.01132910  0.13759525  0.40706512    -0.07440
C1274       C  0.02443027  0.15160474  0.37890741    -0.18570
C1275       C  0.04313614  0.13404072  0.35899634     0.09760
C1276       C  0.04890456  0.10196892  0.36746347    -0.07370
C1277       C  0.04121551  0.09031656  0.39815763    -0.18600
C1278       C  0.02061750  0.10661654  0.41702710     0.09790
S1279       S  0.05529893  0.15199424  0.32096066    -0.33570
S1280       S  0.00332977  0.08377338  0.45042282    -0.33570
H1281       H  0.97170533  0.08997353  0.44143837     0.27800
H1282       H  0.07702059  0.12869526  0.31384386     0.27790
H1283       H  0.01886557  0.17568597  0.37156227     0.18380
H1284       H  0.04566134  0.06576594  0.40482620     0.18390
C1285       C  0.92433259  0.20624991  0.63745114    -0.07440
C1286       C  0.93968504  0.22605789  0.65939166    -0.18570
C1287       C  0.96481420  0.21158253  0.67554668     0.09760
C1288       C  0.96016740  0.17884348  0.68315538    -0.07370
C1289       C  0.93028725  0.16420871  0.67635373    -0.18600
C1290       C  0.91456569  0.17558995  0.64904151     0.09790
S1291       S  0.00419516  0.23012632  0.66964870    -0.33570
S1292       S  0.89778600  0.14589283  0.62302898    -0.33570
H1293       H  0.88451367  0.16706477  0.60094759     0.27800
H1294       H  0.02073724  0.21022556  0.69073301     0.27790
H1295       H  0.94372009  0.25045680  0.65149398     0.18380
H1296       H  0.92610096  0.13956901  0.68379790     0.18390
C1297       C  0.29347729  0.02980835  0.63089646    -0.07440
C1298       C  0.27555283  0.05665032  0.63596848    -0.18570
C1299       C  0.25979167  0.06093921  0.66555611     0.09760
C1300       C  0.26266025  0.03844550  0.69160551    -0.07370
C1301       C  0.28107776  0.01204749  0.68619871    -0.18600
C1302       C  0.29727307  0.00830779  0.65738764     0.09790
S1303       S  0.23461872  0.09425976  0.66866434    -0.33570
S1304       S  0.32227695  0.97457929  0.65570931    -0.33570
H1305       H  0.34247347  0.98794069  0.63156907     0.27800
H1306       H  0.24057099  0.10799299  0.63806525     0.27790
H1307       H  0.27218418  0.07320446  0.61602778     0.18380
H1308       H  0.28328025  0.99392222  0.70482534     0.18390
C1309       C  0.27442505  0.15507624  0.50974498    -0.07440
C1310       C  0.27472473  0.17102288  0.47968611    -0.18570
C1311       C  0.25660437  0.19801857  0.47294805     0.09760
C1312       C  0.23938626  0.21243743  0.49754007    -0.07370
C1313       C  0.23951325  0.19666966  0.52785387    -0.18600
C1314       C  0.25652448  0.16873529  0.53403975     0.09790
S1315       S  0.25414872  0.20987469  0.43135159    -0.33570
S1316       S  0.25274266  0.14994142  0.57327377    -0.33570
H1317       H  0.27955985  0.13119114  0.57082957     0.27800
H1318       H  0.22647236  0.22651126  0.43356922     0.27790
H1319       H  0.28583141  0.15980559  0.45992324     0.18380
H1320       H  0.22666741  0.20638432  0.54729053     0.18390
C1321       C  0.28437904  0.87499480  0.46363531    -0.07440
C1322       C  0.27430232  0.85355103  0.48919082    -0.18570
C1323       C  0.25813089  0.82384357  0.48537793     0.09760
C1324       C  0.25464523  0.81042621  0.45495961    -0.07370
C1325       C  0.26616343  0.83055951  0.42881380    -0.18600
C1326       C  0.27955330  0.86255261  0.43265460     0.09790
S1327       S  0.24016430  0.80596120  0.52123299    -0.33570
S1328       S  0.29064761  0.88570189  0.39725208    -0.33570
H1329       H  0.31547951  0.90352748  0.41179374     0.27800
H1330       H  0.24235432  0.77454825  0.51340717     0.27790
H1331       H  0.27681680  0.86068487  0.51364599     0.18380
H1332       H  0.26507918  0.82135529  0.40505503     0.18390
C1333       C  0.27241647  0.03366248  0.35027287    -0.07440
C1334       C  0.27714411  0.06227130  0.33207933    -0.18570
C1335       C  0.26664707  0.06588481  0.29991717     0.09760
C1336       C  0.24849773  0.04088576  0.28512541    -0.07370
C1337       C  0.24333212  0.01249390  0.30374559    -0.18600
C1338       C  0.25587453  0.00832911  0.33510477     0.09790
S1339       S  0.27693618  0.10378773  0.28031363    -0.33570
S1340       S  0.25012126  0.96987123  0.35489944    -0.33570
H1341       H  0.27793941  0.97212744  0.37371579     0.27800
H1342       H  0.26556335  0.09695864  0.24986017     0.27790
H1343       H  0.28859531  0.08253998  0.34340490     0.18380
H1344       H  0.23058109  0.99260502  0.29314877     0.18390
C1345       C  0.08897458  0.14333105  0.50937077    -0.07440
C1346       C  0.08119428  0.11258452  0.49975164    -0.18570
C1347       C  0.09886510  0.08745880  0.51043369     0.09760
C1348       C  0.12506185  0.09366073  0.53101083    -0.07370
C1349       C  0.13427142  0.12487507  0.53847730    -0.18600
C1350       C  0.11759485  0.15013559  0.52600442     0.09790
S1351       S  0.08812096  0.04833715  0.49603192    -0.33570
S1352       S  0.13390674  0.19036133  0.53010157    -0.33570
H1353       H  0.16339669  0.18241061  0.54373636     0.27800
H1354       H  0.06957100  0.05851776  0.46980623     0.27790
H1355       H  0.05994965  0.10788131  0.48560167     0.18380
H1356       H  0.15630282  0.12945224  0.55157004     0.18390
C1357       C  0.15999285  0.00529437  0.30183924    -0.07440
C1358       C  0.17027728  0.97696227  0.31646700    -0.18570
C1359       C  0.16965684  0.97330578  0.34988185     0.09760
C1360       C  0.16530809  0.00006100  0.36815440    -0.07370
C1361       C  0.16366494  0.02998941  0.35235634    -0.18600
C1362       C  0.16160294  0.03318782  0.31954748     0.09790
S1363       S  0.17328017  0.93439565  0.36746525    -0.33570
S1364       S  0.14679023  0.07083535  0.30529706    -0.33570
H1365       H  0.12740891  0.05954132  0.28045089     0.27800
H1366       H  0.14715544  0.93664119  0.38807930     0.27790
H1367       H  0.17093472  0.95579525  0.30252564     0.18380
H1368       H  0.16148701  0.05127088  0.36590284     0.18390
C1369       C  0.18533974  0.00887412  0.62777838    -0.07440
C1370       C  0.16347697  0.99767487  0.65096723    -0.18570
C1371       C  0.13833208  0.01626335  0.65895361     0.09760
C1372       C  0.13713294  0.04732353  0.64526445    -0.07370
C1373       C  0.16241399  0.06053770  0.62719192    -0.18600
C1374       C  0.18656667  0.04143131  0.61785274     0.09790
S1375       S  0.10641432  0.99702811  0.68232144    -0.33570
S1376       S  0.21258178  0.05779042  0.58658109    -0.33570
H1377       H  0.23349871  0.03277178  0.58684598     0.27800
H1378       H  0.09305713  0.02401133  0.69413910     0.27790
H1379       H  0.16247225  0.97266900  0.65827877     0.18380
H1380       H  0.16161260  0.08477906  0.61762499     0.18390
C1381       C  0.73040799  0.16763347  0.50332259    -0.07440
C1382       C  0.73934601  0.17898686  0.53344023    -0.18570
C1383       C  0.74540464  0.21194941  0.53863398     0.09760
C1384       C  0.74365460  0.23526508  0.51306424    -0.07370
C1385       C  0.73295343  0.22391882  0.48341474    -0.18600
C1386       C  0.72625417  0.19106685  0.47843405     0.09790
S1387       S  0.75433003  0.22242705  0.57894523    -0.33570
S1388       S  0.71402882  0.18026762  0.43883180    -0.33570
H1389       H  0.69765061  0.15163981  0.44836818     0.27800
H1390       H  0.73844408  0.25115996  0.57688600     0.27790
H1391       H  0.74311623  0.16191034  0.55292207     0.18380
H1392       H  0.73041207  0.24081880  0.46354811     0.18390
C1393       C  0.75887360  0.99691199  0.30340357    -0.07440
C1394       C  0.77150005  0.97461390  0.32541766    -0.18570
C1395       C  0.76414561  0.97463833  0.35829277     0.09760
C1396       C  0.74395147  0.99756099  0.37020527    -0.07370
C1397       C  0.73168546  0.01992941  0.34841257    -0.18600
C1398       C  0.73887857  0.02012953  0.31561491     0.09790
S1399       S  0.78212041  0.94538250  0.38432370    -0.33570
S1400       S  0.72097998  0.04966559  0.29010592    -0.33570
H1401       H  0.69787654  0.05885509  0.31180391     0.27800
H1402       H  0.76004706  0.94699385  0.40934390     0.27790
H1403       H  0.78627016  0.95628801  0.31680124     0.18380
H1404       H  0.71796545  0.03880396  0.35758703     0.18390
C1405       C  0.73061991  0.04532730  0.64682058    -0.07440
C1406       C  0.74698709  0.07404434  0.65435441    -0.18570
C1407       C  0.76050388  0.07905401  0.68520911     0.09760
C1408       C  0.76022177  0.05399128  0.70929511    -0.07370
C1409       C  0.74435081  0.02525411  0.70099630    -0.18600
C1410       C  0.72834627  0.02144387  0.67165673     0.09790
S1411       S  0.77844185  0.11789123  0.69112351    -0.33570
S1412       S  0.70666281  0.98396432  0.66647332    -0.33570
H1413       H  0.68616426  0.99546905  0.64240874     0.27800
H1414       H  0.77429329  0.11696014  0.72396540     0.27790
H1415       H  0.75060349  0.09229111  0.63566177     0.18380
H1416       H  0.74326842  0.00548344  0.71811739     0.18390
C1417       C  0.73253653  0.88593195  0.51529174    -0.07440
C1418       C  0.73530293  0.86882385  0.48749743    -0.18570
C1419       C  0.74620556  0.83750569  0.48870211     0.09760
C1420       C  0.75810866  0.82416023  0.51826225    -0.07370
C1421       C  0.75346090  0.84100971  0.54589271    -0.18600
C1422       C  0.73844172  0.86996030  0.54494048     0.09790
S1423       S  0.74397868  0.81755782  0.45125272    -0.33570
S1424       S  0.73072510  0.88752938  0.58267732    -0.33570
H1425       H  0.70893265  0.90933130  0.57023389     0.27800
H1426       H  0.75807976  0.78948446  0.46176554     0.27790
H1427       H  0.73069067  0.88049137  0.46455206     0.18380
H1428       H  0.76122449  0.83132222  0.56876249     0.18390
C1429       C  0.82227366  0.16610391  0.53237001    -0.07440
C1430       C  0.82931283  0.17219957  0.56457978    -0.18570
C1431       C  0.83926528  0.20335740  0.57163384     0.09760
C1432       C  0.84639625  0.22392501  0.54542379    -0.07370
C1433       C  0.82346567  0.22244140  0.52141526    -0.18600
C1434       C  0.81470001  0.19217487  0.51133034     0.09790
S1435       S  0.84542036  0.21552189  0.61191340    -0.33570
S1436       S  0.80448702  0.18874104  0.46937623    -0.33570
H1437       H  0.79790123  0.22074416  0.46265955     0.27800
H1438       H  0.85694926  0.24647834  0.60298638     0.27790
H1439       H  0.83004753  0.15318290  0.58264068     0.18380
H1440       H  0.82531723  0.24051520  0.50285701     0.18390
C1441       C  0.87794694  0.97707409  0.41338703    -0.07440
C1442       C  0.86466688  0.97549767  0.38266207    -0.18570
C1443       C  0.88148923  0.96217336  0.35824690     0.09760
C1444       C  0.91273185  0.95254476  0.36453484    -0.07370
C1445       C  0.92220011  0.94680923  0.39622898    -0.18600
C1446       C  0.90450996  0.95849019  0.42108223     0.09790
S1447       S  0.86555558  0.96246023  0.31813736    -0.33570
S1448       S  0.91832972  0.95075217  0.46128832    -0.33570
H1449       H  0.88730470  0.94741376  0.47412227     0.27800
H1450       H  0.84101985  0.98339459  0.32334556     0.27790
H1451       H  0.84270775  0.98715274  0.37704209     0.18380
H1452       H  0.94528302  0.93714007  0.40147639     0.18390
C1453       C  0.83260254  0.07136140  0.65026467    -0.07440
C1454       C  0.84386753  0.10281256  0.65327175    -0.18570
C1455       C  0.86557981  0.10941447  0.67783944     0.09760
C1456       C  0.87966650  0.08323154  0.69259556    -0.07370
C1457       C  0.85729967  0.05868081  0.70044545    -0.18600
C1458       C  0.83586039  0.04972103  0.67659410     0.09790
S1459       S  0.85979404  0.14459682  0.69977778    -0.33570
S1460       S  0.82036373  0.00890360  0.67700367    -0.33570
H1461       H  0.84813187  0.99577886  0.68999055     0.27800
H1462       H  0.87687390  0.13396128  0.72681084     0.27790
H1463       H  0.83506149  0.12155209  0.63763877     0.18380
H1464       H  0.86442723  0.04005316  0.71650112     0.18390
C1465       C  0.14420663  0.73308422  0.45609759    -0.07440
C1466       C  0.15533308  0.75137875  0.42885837    -0.18570
C1467       C  0.18843861  0.76244779  0.42538302     0.09760
C1468       C  0.21078979  0.75944948  0.45138510    -0.07370
C1469       C  0.19914277  0.73980997  0.47727637    -0.18600
C1470       C  0.16845447  0.72470901  0.47826169     0.09790
S1471       S  0.19979184  0.78228033  0.38810759    -0.33570
S1472       S  0.16059233  0.69655683  0.51117405    -0.33570
H1473       H  0.13412286  0.68105842  0.49669864     0.27800
H1474       H  0.23246050  0.77678394  0.39072513     0.27790
H1475       H  0.13813222  0.75852367  0.41090189     0.18380
H1476       H  0.21380353  0.73552184  0.49781715     0.18390
C1477       C  0.96583513  0.78125279  0.28787613    -0.07440
C1478       C  0.99598760  0.77414196  0.30145553    -0.18570
C1479       C  0.00031528  0.76616479  0.33443289     0.09760
C1480       C  0.97407812  0.76485704  0.35571317    -0.07370
C1481       C  0.94381036  0.77079673  0.34201802    -0.18600
C1482       C  0.93937143  0.77831197  0.30894010     0.09790
S1483       S  0.04046610  0.76083709  0.34839838    -0.33570
S1484       S  0.89922084  0.78472345  0.29540349    -0.33570
H1485       H  0.90323353  0.77294995  0.26482977     0.27800
H1486       H  0.03203453  0.73484688  0.36908297     0.27790
H1487       H  0.01682987  0.77568183  0.28621360     0.18380
H1488       H  0.92324336  0.77070902  0.35761151     0.18390
C1489       C  0.00966138  0.76047912  0.63551378    -0.07440
C1490       C  0.99061058  0.78595705  0.64239192    -0.18570
C1491       C  0.99260429  0.80134470  0.67204675     0.09760
C1492       C  0.01315763  0.79001504  0.69704791    -0.07370
C1493       C  0.03394420  0.76629876  0.68838823    -0.18600
C1494       C  0.03128597  0.75054866  0.65943849     0.09790
S1495       S  0.97318107  0.83854348  0.67381177    -0.33570
S1496       S  0.05829195  0.71912600  0.65328343    -0.33570
H1497       H  0.03936474  0.70385330  0.63006867     0.27800
H1498       H  0.95261041  0.83451585  0.64746686     0.27790
H1499       H  0.97665882  0.79610452  0.62303937     0.18380
H1500       H  0.05336901  0.76022857  0.70407508     0.18390
C1501       C  0.87164074  0.76532664  0.52534630    -0.07440
C1502       C  0.85692110  0.77649102  0.49720629    -0.18570
C1503       C  0.82699595  0.79011169  0.49722311     0.09760
C1504       C  0.80748792  0.78739719  0.52483202    -0.07370
C1505       C  0.82164215  0.77467727  0.55305744    -0.18600
C1506       C  0.85352920  0.76464908  0.55377576     0.09790
S1507       S  0.81820023  0.81567974  0.46343168    -0.33570
S1508       S  0.87010731  0.75227032  0.59171211    -0.33570
H1509       H  0.89543391  0.73590635  0.57908047     0.27800
H1510       H  0.83761583  0.80138064  0.44121748     0.27790
H1511       H  0.87125738  0.77908232  0.47571285     0.18380
H1512       H  0.80771468  0.77269499  0.57480067     0.18390
C1513       C  0.89975064  0.92775434  0.57042596    -0.07440
C1514       C  0.92932743  0.94201709  0.57904832    -0.18570
C1515       C  0.95522627  0.92323848  0.58505955     0.09760
C1516       C  0.95117525  0.89068485  0.57983884    -0.07370
C1517       C  0.92044287  0.87649324  0.58404609    -0.18600
C1518       C  0.89428346  0.89463563  0.57597296     0.09790
S1519       S  0.99393917  0.94249203  0.58926064    -0.33570
S1520       S  0.85685829  0.87367677  0.56770986    -0.33570
H1521       H  0.85400007  0.88736750  0.53672303     0.27800
H1522       H  0.00877405  0.91445973  0.59935525     0.27790
H1523       H  0.93310674  0.96766585  0.57807876     0.18380
H1524       H  0.91730480  0.85079110  0.58394235     0.18390
C1525       C  0.15568713  0.82676590  0.43515040    -0.07440
C1526       C  0.17522986  0.81980765  0.46167873    -0.18570
C1527       C  0.18947736  0.84560695  0.47544267     0.09760
C1528       C  0.19988468  0.87078116  0.45494201    -0.07370
C1529       C  0.19165367  0.87111679  0.42250786    -0.18600
C1530       C  0.16716875  0.85005736  0.41290133     0.09790
S1531       S  0.18072068  0.85042817  0.51736248    -0.33570
S1532       S  0.14844062  0.85580314  0.37493625    -0.33570
H1533       H  0.13154950  0.82623497  0.37733276     0.27800
H1534       H  0.16072755  0.87599400  0.51137941     0.27790
H1535       H  0.16904074  0.79998758  0.47801301     0.18380
H1536       H  0.20020619  0.89043419  0.40676535     0.18390
C1537       C  0.02858311  0.85490221  0.36321237    -0.07440
C1538       C  0.06021159  0.84817493  0.35530324    -0.18570
C1539       C  0.06748702  0.84449472  0.32302611     0.09760
C1540       C  0.04423924  0.85169114  0.30046515    -0.07370
C1541       C  0.01322925  0.84334904  0.30948545    -0.18600
C1542       C  0.00406142  0.85033063  0.34030052     0.09790
S1543       S  0.10614000  0.83474736  0.30955828    -0.33570
S1544       S  0.96369137  0.86228574  0.34657085    -0.33570
H1545       H  0.94952880  0.83425763  0.33542922     0.27800
H1546       H  0.10774381  0.80885575  0.33159794     0.27790
H1547       H  0.07858576  0.84688035  0.37344190     0.18380
H1548       H  0.99617998  0.84271710  0.29097028     0.18390
C1549       C  0.09074421  0.89842003  0.60727396    -0.07440
C1550       C  0.07418169  0.89136205  0.63543055    -0.18570
C1551       C  0.05849048  0.91528827  0.65017258     0.09760
C1552       C  0.06078626  0.94701270  0.63727135    -0.07370
C1553       C  0.08346906  0.95464387  0.61349216    -0.18600
C1554       C  0.09851098  0.93043537  0.59827379     0.09790
S1555       S  0.03318743  0.90265872  0.68273580    -0.33570
S1556       S  0.12060493  0.93953254  0.56194445    -0.33570
H1557       H  0.11096546  0.97098357  0.55746655     0.27800
H1558       H  0.04641993  0.92696689  0.70149499     0.27790
H1559       H  0.06874707  0.86673969  0.64272933     0.18380
H1560       H  0.08685347  0.97899421  0.60453389     0.18390
C1561       C  0.76864817  0.16670711  0.01123388    -0.07440
C1562       C  0.77307989  0.18731851  0.98438097    -0.18570
C1563       C  0.76198406  0.21878243  0.98339657     0.09760
C1564       C  0.74457225  0.23037728  0.00976712    -0.07370
C1565       C  0.74007855  0.20937557  0.03632326    -0.18600
C1566       C  0.75271321  0.17884091  0.03781580     0.09790
S1567       S  0.76966572  0.24101512  0.94639445    -0.33570
S1568       S  0.74741692  0.15602798  0.07486714    -0.33570
H1569       H  0.77414557  0.13741550  0.07105841     0.27800
H1570       H  0.75655937  0.26949971  0.95475630     0.27790
H1571       H  0.78388981  0.17832858  0.96325980     0.18380
H1572       H  0.72755581  0.21733829  0.05693665     0.18390
C1573       C  0.78673310  0.88891284  0.02659852    -0.07440
C1574       C  0.78148032  0.86986438  0.99957018    -0.18570
C1575       C  0.76357277  0.84118448  0.00053566     0.09760
C1576       C  0.75370184  0.82690321  0.03002683    -0.07370
C1577       C  0.75994073  0.84481623  0.05777544    -0.18600
C1578       C  0.77562525  0.87568061  0.05625836     0.09790
S1579       S  0.75452131  0.82595731  0.96160744    -0.33570
S1580       S  0.78046784  0.89673655  0.09251738    -0.33570
H1581       H  0.81007486  0.91156132  0.08394703     0.27800
H1582       H  0.74813936  0.79440500  0.97123742     0.27790
H1583       H  0.78887608  0.87801596  0.97621814     0.18380
H1584       H  0.75282971  0.83482331  0.08085651     0.18390
C1585       C  0.78923292  0.04928737  0.86567757    -0.07440
C1586       C  0.78627362  0.02322572  0.84506489    -0.18570
C1587       C  0.76906089  0.02360435  0.81647488     0.09760
C1588       C  0.75802497  0.05250987  0.80331295    -0.07370
C1589       C  0.76301116  0.07976719  0.82230627    -0.18600
C1590       C  0.77713206  0.07818069  0.85351400     0.09790
S1591       S  0.76096561  0.98485268  0.80024944    -0.33570
S1592       S  0.77904284  0.11349893  0.87630771    -0.33570
H1593       H  0.76472352  0.09840645  0.90343868     0.27800
H1594       H  0.75473586  0.99460233  0.76897771     0.27790
H1595       H  0.79573986  0.00049155  0.85202449     0.18380
H1596       H  0.75544526  0.10254614  0.81329861     0.18390
C1597       C  0.76678109  0.00760794  0.14745631    -0.07440
C1598       C  0.74470855  0.02501227  0.16458619    -0.18570
C1599       C  0.73391238  0.01604375  0.19573220     0.09760
C1600       C  0.74474387  0.98840961  0.21175228    -0.07370
C1601       C  0.76644454  0.97039015  0.19457408    -0.18600
C1602       C  0.77804783  0.98000867  0.16350980     0.09790
S1603       S  0.70578709  0.04039707  0.21469294    -0.33570
S1604       S  0.80723993  0.95617282  0.14587025    -0.33570
H1605       H  0.82624931  0.98245573  0.13444553     0.27800
H1606       H  0.70789961  0.06634153  0.19257748     0.27790
H1607       H  0.73518474  0.04604146  0.15316110     0.18380
H1608       H  0.77525979  0.94897358  0.20587574     0.18390
C1609       C  0.23359686  0.87861547  0.99845283    -0.07440
C1610       C  0.23405506  0.86599934  0.03003893    -0.18570
C1611       C  0.24451545  0.83465912  0.03698731     0.09760
C1612       C  0.25874009  0.81698949  0.01258286    -0.07370
C1613       C  0.26024545  0.83101826  0.98204506    -0.18600
C1614       C  0.24467467  0.85885942  0.97418694     0.09790
S1615       S  0.23994539  0.81960236  0.07756082    -0.33570
S1616       S  0.23843941  0.86685216  0.93183671    -0.33570
H1617       H  0.20937382  0.88177550  0.93588183     0.27800
H1618       H  0.24057298  0.78727312  0.07108056     0.27790
H1619       H  0.22621993  0.88031897  0.04923160     0.18380
H1620       H  0.27063560  0.81817549  0.96304102     0.18390
C1621       C  0.25631602  0.22677967  0.96500531    -0.07440
C1622       C  0.26255610  0.21147516  0.99438958    -0.18570
C1623       C  0.25019535  0.18087281  0.00245924     0.09760
C1624       C  0.23665118  0.16106577  0.97883500    -0.07370
C1625       C  0.23247485  0.17504708  0.94802965    -0.18600
C1626       C  0.24099978  0.20784771  0.94125572     0.09790
S1627       S  0.25155211  0.16887771  0.04443621    -0.33570
S1628       S  0.23313582  0.22339985  0.90147380    -0.33570
H1629       H  0.24895018  0.25322208  0.90439286     0.27800
H1630       H  0.22387563  0.14872634  0.04347502     0.27790
H1631       H  0.27507314  0.22438579  0.01270166     0.18380
H1632       H  0.22324552  0.16039855  0.92906264     0.18390
C1633       C  0.21863199  0.04544591  0.84521253    -0.07440
C1634       C  0.24093087  0.07017401  0.83596777    -0.18570
C1635       C  0.25744567  0.07059419  0.80617775     0.09760
C1636       C  0.25444237  0.04400751  0.78584727    -0.07370
C1637       C  0.23222099  0.01954231  0.79571293    -0.18600
C1638       C  0.21272271  0.02151617  0.82271169     0.09790
S1639       S  0.28139713  0.10619121  0.79619509    -0.33570
S1640       S  0.18322159  0.98955058  0.83007067    -0.33570
H1641       H  0.16532291  0.00610981  0.85187846     0.27800
H1642       H  0.28915552  0.09944819  0.76500926     0.27790
H1643       H  0.24689868  0.08848652  0.85277849     0.18380
H1644       H  0.22863967  0.99895251  0.78130795     0.18390
C1645       C  0.23176399  0.01338591  0.12919737    -0.07440
C1646       C  0.22768604  0.04339110  0.14205463    -0.18570
C1647       C  0.24009300  0.05161711  0.17227974     0.09760
C1648       C  0.25548526  0.02890738  0.19234096    -0.07370
C1649       C  0.25923465  0.99871355  0.17961930    -0.18600
C1650       C  0.24779764  0.99092951  0.14883484     0.09790
S1651       S  0.23865580  0.09270599  0.18207059    -0.33570
S1652       S  0.25648479  0.95233672  0.13471050    -0.33570
H1653       H  0.23262827  0.95170137  0.11094777     0.27800
H1654       H  0.26990476  0.09433407  0.19411202     0.27790
H1655       H  0.21799959  0.06198358  0.12678661     0.18380
H1656       H  0.27125642  0.98079031  0.19365667     0.18390
C1657       C  0.48922063  0.21440265  0.24866395    -0.07440
C1658       C  0.46297168  0.19432292  0.25970275    -0.18570
C1659       C  0.46676621  0.16280883  0.27276008     0.09760
C1660       C  0.49760964  0.15036011  0.27562507    -0.07370
C1661       C  0.52345083  0.17150351  0.26638444    -0.18600
C1662       C  0.51988727  0.20199525  0.25276567     0.09790
S1663       S  0.43167658  0.14058170  0.28658287    -0.33570
S1664       S  0.55667830  0.22338470  0.24234887    -0.33570
H1665       H  0.54680200  0.25263710  0.25202338     0.27800
H1666       H  0.44706770  0.12557481  0.31255020     0.27790
H1667       H  0.43924840  0.20348430  0.25898753     0.18380
H1668       H  0.54779149  0.16427359  0.26931027     0.18390
C1669       C  0.48412523  0.80362315  0.24092274    -0.07440
C1670       C  0.51365385  0.82109261  0.23709974    -0.18570
C1671       C  0.51832013  0.85313490  0.24658717     0.09760
C1672       C  0.49239506  0.87015937  0.25786222    -0.07370
C1673       C  0.46327979  0.85264347  0.26263725    -0.18600
C1674       C  0.45932871  0.81979287  0.25616788     0.09790
S1675       S  0.55807391  0.87109796  0.24362367    -0.33570
S1676       S  0.42186043  0.80081415  0.26900396    -0.33570
H1677       H  0.42806515  0.76965718  0.26135383     0.27800
H1678       H  0.55380650  0.89433616  0.26627962     0.27790
H1679       H  0.53380582  0.80920423  0.22767053     0.18380
H1680       H  0.44305141  0.86485013  0.27147134     0.18390
C1681       C  0.36371963  0.02870995  0.26253834    -0.07440
C1682       C  0.34149272  0.00292081  0.26759261    -0.18570
C1683       C  0.30953974  0.00335316  0.25612125     0.09760
C1684       C  0.29832086  0.03078125  0.23924904    -0.07370
C1685       C  0.32057949  0.05658071  0.23446633    -0.18600
C1686       C  0.35250727  0.05583954  0.24559572     0.09790
S1687       S  0.28610096  0.96651687  0.26154337    -0.33570
S1688       S  0.37874247  0.08960572  0.23490291    -0.33570
H1689       H  0.40209848  0.08340026  0.25820202     0.27800
H1690       H  0.25764634  0.97596887  0.24721434     0.27790
H1691       H  0.34986794  0.98101111  0.27837901     0.18380
H1692       H  0.31327488  0.07768534  0.22148246     0.18390
C1693       C  0.63742482  0.96619601  0.28074625    -0.07440
C1694       C  0.64672948  0.95922785  0.24945541    -0.18570
C1695       C  0.67951468  0.95911814  0.24002848     0.09760
C1696       C  0.70408064  0.97018783  0.26062677    -0.07370
C1697       C  0.69464920  0.96787925  0.29334716    -0.18600
C1698       C  0.66240182  0.96799443  0.30326006     0.09790
S1699       S  0.68981552  0.93711276  0.20583239    -0.33570
S1700       S  0.65458029  0.97186339  0.34517387    -0.33570
H1701       H  0.62240215  0.96089903  0.34387331     0.27800
H1702       H  0.71759093  0.92485890  0.21970119     0.27790
H1703       H  0.62822585  0.95441774  0.23234980     0.18380
H1704       H  0.71147292  0.96467579  0.31221990     0.18390
C1705       C  0.38739958  0.03184818  0.09040076    -0.07440
C1706       C  0.41211129  0.05210295  0.07784317    -0.18570
C1707       C  0.42485546  0.07686960  0.09564081     0.09760
C1708       C  0.41485318  0.07930652  0.12742309    -0.07370
C1709       C  0.38484398  0.06577640  0.13587168    -0.18600
C1710       C  0.37387732  0.03874487  0.12027879     0.09790
S1711       S  0.45673930  0.10174634  0.07856234    -0.33570
S1712       S  0.34317708  0.01367660  0.13993188    -0.33570
H1713       H  0.34999090  0.98597413  0.12388909     0.27800
H1714       H  0.45817050  0.12220816  0.10437418     0.27790
H1715       H  0.42059733  0.04969080  0.05369448     0.18380
H1716       H  0.37548900  0.06964369  0.15945942     0.18390
C1717       C  0.65630011  0.97586371  0.10696464    -0.07440
C1718       C  0.64605914  0.94966092  0.12612566    -0.18570
C1719       C  0.63582175  0.95482142  0.15725949     0.09760
C1720       C  0.64269486  0.98490407  0.17096524    -0.07370
C1721       C  0.66087413  0.00772450  0.15363023    -0.18600
C1722       C  0.66000842  0.00609650  0.12096333     0.09790
S1723       S  0.61456967  0.92251942  0.17831300    -0.33570
S1724       S  0.66184566  0.04369084  0.09840260    -0.33570
H1725       H  0.64553252  0.03175257  0.07162041     0.27800
H1726       H  0.59297006  0.94167411  0.19340950     0.27790
H1727       H  0.64401580  0.92617684  0.11637822     0.18380
H1728       H  0.66510717  0.03118407  0.16309593     0.18390
C1729       C  0.63381796  0.29446488  0.01423644    -0.07440
C1730       C  0.64870021  0.28523325  0.98607356    -0.18570
C1731       C  0.67966243  0.27322972  0.98564353     0.09760
C1732       C  0.69891345  0.27285479  0.01357661    -0.07370
C1733       C  0.68485557  0.28387970  0.04164900    -0.18600
C1734       C  0.65267136  0.29364385  0.04246422     0.09790
S1735       S  0.69283359  0.25658386  0.94926066    -0.33570
S1736       S  0.63645218  0.30281692  0.08058613    -0.33570
H1737       H  0.61145615  0.32084490  0.06828150     0.27800
H1738       H  0.66776537  0.26647324  0.92932268     0.27790
H1739       H  0.63440842  0.28437830  0.96447321     0.18380
H1740       H  0.69884080  0.28406794  0.06345605     0.18390
C1741       C  0.35339875  0.31797739  0.96281865    -0.07440
C1742       C  0.33057289  0.31980526  0.98725814    -0.18570
C1743       C  0.30491868  0.29714788  0.99042380     0.09760
C1744       C  0.29299373  0.28075870  0.96360246    -0.07370
C1745       C  0.31246814  0.28376371  0.93584795    -0.18600
C1746       C  0.34314689  0.30040918  0.93600285     0.09790
S1747       S  0.29417031  0.28362247  0.03035762    -0.33570
S1748       S  0.36874045  0.29789067  0.90197770    -0.33570
H1749       H  0.38856972  0.32453334  0.90909374     0.27800
H1750       H  0.30617324  0.31056934  0.04615049     0.27790
H1751       H  0.33785344  0.33253696  0.00831128     0.18380
H1752       H  0.30478283  0.27159360  0.91463961     0.18390
C1753       C  0.48996714  0.29960678  0.85678118    -0.07440
C1754       C  0.46258529  0.28263453  0.84545325    -0.18570
C1755       C  0.45936596  0.27369716  0.81303656     0.09760
C1756       C  0.48468720  0.27997008  0.79079789    -0.07370
C1757       C  0.51146954  0.29793958  0.80223221    -0.18600
C1758       C  0.51411735  0.30787889  0.83407069     0.09790
S1759       S  0.42205748  0.25468059  0.80155605    -0.33570
S1760       S  0.55025202  0.32978123  0.84488550    -0.33570
H1761       H  0.53688494  0.34514455  0.87057990     0.27800
H1762       H  0.42112267  0.27078055  0.77156404     0.27790
H1763       H  0.44394543  0.27513502  0.86228577     0.18380
H1764       H  0.53105797  0.30443183  0.78632491     0.18390
C1765       C  0.48799116  0.29240788  0.14055366    -0.07440
C1766       C  0.45937853  0.28557667  0.15779169    -0.18570
C1767       C  0.45830658  0.26691750  0.18601345     0.09760
C1768       C  0.48663464  0.25971773  0.20240927    -0.07370
C1769       C  0.51583679  0.26927217  0.18693888    -0.18600
C1770       C  0.51673822  0.28398683  0.15579803     0.09790
S1771       S  0.41959174  0.25174067  0.19920760    -0.33570
S1772       S  0.55487605  0.29050007  0.13662664    -0.33570
H1773       H  0.54690896  0.31915405  0.12092257     0.27800
H1774       H  0.43044197  0.22149595  0.20733590     0.27790
H1775       H  0.43664737  0.29148835  0.14713665     0.18380
H1776       H  0.53827244  0.26578174  0.19873202     0.18390
C1777       C  0.48534219  0.18875901  0.13025870    -0.07440
C1778       C  0.51800597  0.19729908  0.12848773    -0.18570
C1779       C  0.53835365  0.18948606  0.15375868     0.09760
C1780       C  0.52595712  0.17134655  0.18001910    -0.07370
C1781       C  0.49269488  0.16925950  0.18453360    -0.18600
C1782       C  0.47207578  0.17708640  0.15930773     0.09790
S1783       S  0.58071574  0.19671808  0.14852485    -0.33570
S1784       S  0.42976005  0.16753832  0.16257129    -0.33570
H1785       H  0.42988504  0.15913443  0.19540195     0.27800
H1786       H  0.58873169  0.18855837  0.18037194     0.27790
H1787       H  0.52795185  0.20809200  0.10662794     0.18380
H1788       H  0.48312988  0.15551423  0.20491504     0.18390
C1789       C  0.34322474  0.15391453  0.95514712    -0.07440
C1790       C  0.35433724  0.16112342  0.92394021    -0.18570
C1791       C  0.35634225  0.19316479  0.91319423     0.09760
C1792       C  0.35332592  0.21593232  0.93631834    -0.07370
C1793       C  0.32913150  0.20867173  0.95832745    -0.18600
C1794       C  0.33017738  0.17842718  0.97288333     0.09790
S1795       S  0.36884091  0.20489459  0.87349976    -0.33570
S1796       S  0.32860114  0.17705946  0.01607835    -0.33570
H1797       H  0.35738139  0.16125234  0.01995503     0.27800
H1798       H  0.36165780  0.23691149  0.87615402     0.27790
H1799       H  0.36335129  0.14275255  0.90964432     0.18380
H1800       H  0.32241586  0.22748539  0.97342690     0.18390
C1801       C  0.62760191  0.10230317  0.96674220    -0.07440
C1802       C  0.59686947  0.08873572  0.97217630    -0.18570
C1803       C  0.57446889  0.10482063  0.98917712     0.09760
C1804       C  0.58300522  0.13532898  0.00039768    -0.07370
C1805       C  0.61360193  0.14899833  0.99356148    -0.18600
C1806       C  0.63506084  0.13372374  0.97514687     0.09790
S1807       S  0.53640492  0.08441971  0.99660722    -0.33570
S1808       S  0.67319638  0.15338772  0.96472018    -0.33570
H1809       H  0.66850323  0.18216687  0.97975103     0.27800
H1810       H  0.53611102  0.09172726  0.02912315     0.27790
H1811       H  0.59130696  0.06430423  0.96608289     0.18380
H1812       H  0.62035565  0.17254371  0.00153522     0.18390
C1813       C  0.65445254  0.04172645  0.72105671    -0.07440
C1814       C  0.67295667  0.07061746  0.71888436    -0.18570
C1815       C  0.69907497  0.07708973  0.73897866     0.09760
C1816       C  0.71250220  0.05247683  0.75776392    -0.07370
C1817       C  0.69554047  0.02241680  0.75798789    -0.18600
C1818       C  0.66675153  0.01704840  0.74041729     0.09790
S1819       S  0.71204450  0.11828216  0.74116273    -0.33570
S1820       S  0.64672422  0.97841550  0.74336575    -0.33570
H1821       H  0.63370619  0.98014772  0.71236260     0.27800
H1822       H  0.72989470  0.11496131  0.76917684     0.27790
H1823       H  0.66396867  0.09040815  0.70472285     0.18380
H1824       H  0.70437013  0.00266554  0.77176997     0.18390
C1825       C  0.37159369  0.02727671  0.73602589    -0.07440
C1826       C  0.35128073  0.00387815  0.75124344    -0.18570
C1827       C  0.31877051  0.00854005  0.75729900     0.09760
C1828       C  0.30490297  0.03761402  0.74805687    -0.07370
C1829       C  0.32462962  0.06028872  0.73076656    -0.18600
C1830       C  0.35748536  0.05572996  0.72527303     0.09790
S1831       S  0.29619905  0.97575673  0.77630841    -0.33570
S1832       S  0.38026395  0.08753202  0.70537549    -0.33570
H1833       H  0.40532725  0.08646495  0.72778011     0.27800
H1834       H  0.26982186  0.97766887  0.75567847     0.27790
H1835       H  0.36098435  0.98140180  0.75887196     0.18380
H1836       H  0.31441919  0.08191473  0.72142237     0.18390
C1837       C  0.48650048  0.17307329  0.71650363    -0.07440
C1838       C  0.51412074  0.19200395  0.72522254    -0.18570
C1839       C  0.51330216  0.22006591  0.74181037     0.09760
C1840       C  0.48396049  0.23379944  0.74796792    -0.07370
C1841       C  0.45583062  0.21631213  0.73824583    -0.18600
C1842       C  0.45677461  0.18623231  0.72336422     0.09790
S1843       S  0.55122958  0.23493386  0.75760428    -0.33570
S1844       S  0.41969264  0.16774807  0.71091729    -0.33570
H1845       H  0.42794098  0.13773122  0.72270497     0.27800
H1846       H  0.54596683  0.26730973  0.75459609     0.27790
H1847       H  0.53795269  0.18427092  0.72104914     0.18380
H1848       H  0.43286256  0.22646940  0.74119106     0.18390
C1849       C  0.53475027  0.82853052  0.75418296    -0.07440
C1850       C  0.50690914  0.84450923  0.76042001    -0.18570
C1851       C  0.50228787  0.87567902  0.74882637     0.09760
C1852       C  0.52748534  0.89427567  0.73382935    -0.07370
C1853       C  0.55593103  0.87884279  0.72797186    -0.18600
C1854       C  0.55951907  0.84625267  0.73714258     0.09790
S1855       S  0.46314721  0.89086035  0.75470418    -0.33570
S1856       S  0.59712957  0.82963340  0.72794962    -0.33570
H1857       H  0.59571053  0.80545715  0.75175484     0.27800
H1858       H  0.46517692  0.91341457  0.72908032     0.27790
H1859       H  0.48757878  0.83223001  0.77336369     0.18380
H1860       H  0.57608903  0.89258637  0.71776901     0.18390
C1861       C  0.46175870  0.17359207  0.80366362    -0.07440
C1862       C  0.48456919  0.19695452  0.81109091    -0.18570
C1863       C  0.48911876  0.20478566  0.84228466     0.09760
C1864       C  0.46736011  0.19142789  0.86565994    -0.07370
C1865       C  0.43884310  0.17594811  0.85553988    -0.18600
C1866       C  0.43499426  0.16986655  0.82311667     0.09790
S1867       S  0.52723735  0.22522125  0.84958288    -0.33570
S1868       S  0.39806385  0.15453512  0.80700462    -0.33570
H1869       H  0.41088032  0.14649499  0.77762257     0.27800
H1870       H  0.54060167  0.19758510  0.86282895     0.27790
H1871       H  0.50551316  0.20015965  0.79659731     0.18380
H1872       H  0.42088080  0.16736391  0.87256617     0.18390
C1873       C  0.39068536  0.05493651  0.83912946    -0.07440
C1874       C  0.38248437  0.08623774  0.84528478    -0.18570
C1875       C  0.35000801  0.09330635  0.84526640     0.09760
C1876       C  0.32767414  0.06796127  0.84389114    -0.07370
C1877       C  0.33541787  0.04347077  0.82453819    -0.18600
C1878       C  0.36631128  0.03306567  0.82816174     0.09790
S1879       S  0.33669664  0.13191449  0.85364297    -0.33570
S1880       S  0.36993101  0.99045157  0.82767139    -0.33570
H1881       H  0.38644110  0.98880810  0.85701354     0.27800
H1882       H  0.30495900  0.12185418  0.86083512     0.27790
H1883       H  0.40062203  0.10403515  0.85152858     0.18380
H1884       H  0.31666488  0.02603168  0.81899287     0.18390
C1885       C  0.65361104  0.06587883  0.82479697    -0.07440
C1886       C  0.65249489  0.03366556  0.81739960    -0.18570
C1887       C  0.67405028  0.01309960  0.83142966     0.09760
C1888       C  0.69699551  0.02532484  0.85256779    -0.07370
C1889       C  0.70011083  0.05813145  0.85717690    -0.18600
C1890       C  0.67876802  0.07875798  0.84301563     0.09790
S1891       S  0.66881260  0.97064135  0.82711873    -0.33570
S1892       S  0.68174509  0.12007723  0.85289373    -0.33570
H1893       H  0.66479681  0.13118874  0.82594876     0.27800
H1894       H  0.63819637  0.97140393  0.81344368     0.27790
H1895       H  0.63273915  0.02412961  0.80335656     0.18380
H1896       H  0.71641881  0.06711533  0.87520734     0.18390
C1897       C  0.29994705  0.77106213  0.00973497    -0.07440
C1898       C  0.30807208  0.75811591  0.98035824    -0.18570
C1899       C  0.33895211  0.74772693  0.97392521     0.09760
C1900       C  0.36384857  0.75024086  0.99690744    -0.07370
C1901       C  0.35576716  0.76207569  0.02679117    -0.18600
C1902       C  0.32451398  0.77221783  0.03339185     0.09790
S1903       S  0.34542848  0.73232729  0.93499669    -0.33570
S1904       S  0.31820975  0.78844965  0.07175362    -0.33570
H1905       H  0.29065915  0.76921592  0.07797131     0.27800
H1906       H  0.37042183  0.71278686  0.94450156     0.27790
H1907       H  0.29018167  0.75629341  0.96177661     0.18380
H1908       H  0.37441835  0.76537713  0.04453054     0.18390
C1909       C  0.64176573  0.75810430  0.02573404    -0.07440
C1910       C  0.65899612  0.75484240  0.05459472    -0.18570
C1911       C  0.69128918  0.76565903  0.05766855     0.09760
C1912       C  0.70762742  0.78128165  0.03149023    -0.07370
C1913       C  0.68991678  0.78431509  0.00263861    -0.18600
C1914       C  0.65819160  0.77218400  0.99927907     0.09790
S1915       S  0.70930687  0.75991861  0.09642233    -0.33570
S1916       S  0.63904512  0.77720819  0.96095038    -0.33570
H1917       H  0.62411914  0.74663782  0.96187941     0.27800
H1918       H  0.73069204  0.78632038  0.09394833     0.27790
H1919       H  0.64659533  0.74504984  0.07561706     0.18380
H1920       H  0.69998960  0.79645446  0.98201291     0.18390
C1921       C  0.47990029  0.75565136  0.19986486    -0.07440
C1922       C  0.50599651  0.74087294  0.18631611    -0.18570
C1923       C  0.50319962  0.72396081  0.15777834     0.09760
C1924       C  0.47453658  0.72361518  0.13953518    -0.07370
C1925       C  0.44789520  0.73619168  0.15416479    -0.18600
C1926       C  0.45036398  0.75259857  0.18307671     0.09790
S1927       S  0.53869882  0.70698683  0.14290936    -0.33570
S1928       S  0.41515006  0.77125453  0.19551187    -0.33570
H1929       H  0.43116420  0.80114208  0.19768369     0.27800
H1930       H  0.52268077  0.68845148  0.12001474     0.27790
H1931       H  0.52886760  0.74197876  0.19841667     0.18380
H1932       H  0.42584049  0.73740304  0.14059438     0.18390
C1933       C  0.54081634  0.75641607  0.86347952    -0.07440
C1934       C  0.51364272  0.74988071  0.84467537    -0.18570
C1935       C  0.50950673  0.76391635  0.81394453     0.09760
C1936       C  0.53532023  0.78126245  0.79802945    -0.07370
C1937       C  0.56360070  0.78588147  0.81614757    -0.18600
C1938       C  0.56623276  0.77452328  0.84839130     0.09790
S1939       S  0.46854993  0.76316351  0.80056094    -0.33570
S1940       S  0.60175422  0.78617707  0.87022479    -0.33570
H1941       H  0.59729173  0.76327030  0.89528220     0.27800
H1942       H  0.47400615  0.78133881  0.77297213     0.27790
H1943       H  0.49294522  0.73820875  0.85625275     0.18380
H1944       H  0.58366353  0.79934728  0.80552770     0.18390
C1945       C  0.57060184  0.89955231  0.90450068    -0.07440
C1946       C  0.57253514  0.89306899  0.87207535    -0.18570
C1947       C  0.58259187  0.91728035  0.85032342     0.09760
C1948       C  0.58712537  0.94849962  0.86147857    -0.07370
C1949       C  0.59528288  0.95198519  0.89350359    -0.18600
C1950       C  0.58729638  0.92721689  0.91557780     0.09790
S1951       S  0.58186052  0.90883381  0.80839996    -0.33570
S1952       S  0.59562609  0.93306812  0.95735003    -0.33570
H1953       H  0.61645334  0.96000558  0.95287610     0.27800
H1954       H  0.59328433  0.93924235  0.79769180     0.27790
H1955       H  0.56289741  0.87071841  0.86328061     0.18380
H1956       H  0.60217504  0.97533325  0.90192626     0.18390
C1957       C  0.55030010  0.91984915  0.13875423    -0.07440
C1958       C  0.53830717  0.89308538  0.15655628    -0.18570
C1959       C  0.50818233  0.88056978  0.14783519     0.09760
C1960       C  0.49628837  0.88855841  0.11725757    -0.07370
C1961       C  0.51670844  0.90670727  0.09565748    -0.18600
C1962       C  0.54570154  0.91960274  0.10595468     0.09790
S1963       S  0.48523428  0.85563738  0.17575000    -0.33570
S1964       S  0.57039099  0.94309938  0.07820528    -0.33570
H1965       H  0.58867148  0.95824490  0.10174977     0.27800
H1966       H  0.45507550  0.86369725  0.16381951     0.27790
H1967       H  0.54609899  0.88947970  0.18093188     0.18380
H1968       H  0.51114967  0.91002035  0.07052850     0.18390
C1969       C  0.36829373  0.84104488  0.01865239    -0.07440
C1970       C  0.34582827  0.83595545  0.99444540    -0.18570
C1971       C  0.33535734  0.86307963  0.97858748     0.09760
C1972       C  0.34018184  0.89235191  0.99385200    -0.07370
C1973       C  0.34968480  0.89254151  0.02609347    -0.18600
C1974       C  0.36185633  0.86494460  0.03978067     0.09790
S1975       S  0.32453444  0.85971430  0.93704680    -0.33570
S1976       S  0.37914605  0.86552310  0.07912562    -0.33570
H1977       H  0.39022074  0.83445442  0.07826569     0.27800
H1978       H  0.34608145  0.88429707  0.92621486     0.27790
H1979       H  0.34678885  0.81475889  0.98075447     0.18380
H1980       H  0.35026022  0.91424466  0.03926658     0.18390
C1981       C  0.68896848  0.86215431  0.98582102    -0.07440
C1982       C  0.68523474  0.85772203  0.01893773    -0.18570
C1983       C  0.65513351  0.85952714  0.03258512     0.09760
C1984       C  0.62846814  0.86289676  0.01230764    -0.07370
C1985       C  0.63173603  0.85849959  0.97945024    -0.18600
C1986       C  0.66220045  0.85602862  0.96632514     0.09790
S1987       S  0.65199106  0.86213438  0.07545248    -0.33570
S1988       S  0.66725269  0.85508798  0.92367329    -0.33570
H1989       H  0.63467311  0.84982356  0.91629080     0.27800
H1990       H  0.68266525  0.85146025  0.08274313     0.27790
H1991       H  0.70544423  0.86245934  0.03423857     0.18380
H1992       H  0.61077495  0.85773245  0.96420297     0.18390
C1993       C  0.80213021  0.78265612  0.02970560    -0.07440
C1994       C  0.82004252  0.79726914  0.05478786    -0.18570
C1995       C  0.85072397  0.81291884  0.04963246     0.09760
C1996       C  0.86257556  0.81764401  0.01815255    -0.07370
C1997       C  0.84158088  0.80749184  0.99348686    -0.18600
C1998       C  0.81509628  0.78689143  0.99875263     0.09790
S1999       S  0.87240970  0.82755941  0.08361968    -0.33570
S2000       S  0.80100210  0.76629130  0.96382665    -0.33570
H2001       H  0.78523405  0.74105006  0.97990266     0.27800
H2002       H  0.88956008  0.85202965  0.06655181     0.27790
H2003       H  0.81011656  0.79696910  0.07854259     0.18380
H2004       H  0.84746704  0.81229815  0.96861925     0.18390
C2005       C  0.20559748  0.77188101  0.00562584    -0.07440
C2006       C  0.18492963  0.76945218  0.03204437    -0.18570
C2007       C  0.15345223  0.78030952  0.03060345     0.09760
C2008       C  0.14081479  0.79369781  0.00181738    -0.07370
C2009       C  0.16145960  0.79699854  0.97554152    -0.18600
C2010       C  0.19316605  0.78645154  0.97682012     0.09790
S2011       S  0.12979145  0.77517051  0.06642518    -0.33570
S2012       S  0.21392973  0.78955132  0.93903965    -0.33570
H2013       H  0.24089685  0.77326324  0.94857000     0.27800
H2014       H  0.10889017  0.79957587  0.05869299     0.27790
H2015       H  0.19330251  0.75867706  0.05423539     0.18380
H2016       H  0.15198538  0.80565012  0.95288141     0.18390
C2017       C  0.01999696  0.79282764  0.79172710    -0.07440
C2018       C  0.99104935  0.80212488  0.80364203    -0.18570
C2019       C  0.98943316  0.82298110  0.82867135     0.09760
C2020       C  0.01586817  0.82746696  0.85004297    -0.07370
C2021       C  0.04556259  0.81783982  0.83904190    -0.18600
C2022       C  0.04816239  0.80254494  0.80919746     0.09790
S2023       S  0.95331598  0.84521104  0.83086989    -0.33570
S2024       S  0.08799790  0.79644229  0.79556991    -0.33570
H2025       H  0.08044737  0.79588706  0.76293113     0.27800
H2026       H  0.93276528  0.82267296  0.81630245     0.27790
H2027       H  0.96951266  0.79587109  0.79091062     0.18380
H2028       H  0.06666147  0.82192139  0.85362595     0.18390
C2029       C  0.98045573  0.77113425  0.19637451    -0.07440
C2030       C  0.00135356  0.79643074  0.18531110    -0.18570
C2031       C  0.00585494  0.80373687  0.15234616     0.09760
C2032       C  0.99036950  0.78465844  0.12927009    -0.07370
C2033       C  0.97060717  0.75871364  0.14039816    -0.18600
C2034       C  0.96508069  0.75206256  0.17312652     0.09790
S2035       S  0.03312932  0.83641341  0.14131237    -0.33570
S2036       S  0.93542290  0.72091199  0.18319156    -0.33570
H2037       H  0.92333819  0.73501785  0.21016021     0.27800
H2038       H  0.01370635  0.84831818  0.11662690     0.27790
H2039       H  0.01373061  0.81110621  0.20257875     0.18380
H2040       H  0.95880191  0.74355948  0.12318006     0.18390
C2041       C  0.79279318  0.28143568  0.01752286    -0.07440
C2042       C  0.80815987  0.29121016  0.98912736    -0.18570
C2043       C  0.83801728  0.28024105  0.98106106     0.09760
C2044       C  0.85673639  0.26377607  0.00427498    -0.07370
C2045       C  0.84235197  0.25529311  0.03379639    -0.18600
C2046       C  0.81033469  0.26289145  0.04028233     0.09790
S2047       S  0.85034067  0.28521886  0.93961311    -0.33570
S2048       S  0.79476042  0.24958112  0.07877211    -0.33570
H2049       H  0.76363178  0.25972858  0.07455247     0.27800
H2050       H  0.82318627  0.30025879  0.92769655     0.27790
H2051       H  0.79535041  0.30548500  0.97176302     0.18380
H2052       H  0.85617185  0.24317756  0.05205630     0.18390
C2053       C  0.99845952  0.27853856  0.79746007    -0.07440
C2054       C  0.97155622  0.25947830  0.80740401    -0.18570
C2055       C  0.97299483  0.23609524  0.83211383     0.09760
C2056       C  0.00008649  0.23453696  0.85230013    -0.07370
C2057       C  0.02734838  0.25312313  0.84262506    -0.18600
C2058       C  0.02723710  0.27410957  0.81531139     0.09790
S2059       S  0.93717532  0.21199918  0.84061498    -0.33570
S2060       S  0.06477228  0.29458797  0.80601911    -0.33570
H2061       H  0.05868152  0.30009245  0.77381783     0.27800
H2062       H  0.95240211  0.18940617  0.86029946     0.27790
H2063       H  0.94934961  0.26137178  0.79428153     0.18380
H2064       H  0.04822119  0.25335205  0.85803893     0.18390
C2065       C  0.13567109  0.22712738  0.97049060    -0.07440
C2066       C  0.15840204  0.22242343  0.99482019    -0.18570
C2067       C  0.18777057  0.23999730  0.99667389     0.09760
C2068       C  0.19874022  0.26126097  0.97099461    -0.07370
C2069       C  0.17810650  0.26158145  0.94375048    -0.18600
C2070       C  0.14676041  0.24596267  0.94364782     0.09790
S2071       S  0.20642416  0.23488347  0.03515885    -0.33570
S2072       S  0.12140580  0.25187251  0.90935517    -0.33570
H2073       H  0.10314548  0.22332072  0.91423651     0.27800
H2074       H  0.23475481  0.25124017  0.02732101     0.27790
H2075       H  0.15109102  0.20763543  0.01549693     0.18380
H2076       H  0.18586001  0.27549831  0.92276107     0.18390
C2077       C  0.98812565  0.25327951  0.13656840    -0.07440
C2078       C  0.01642464  0.25735983  0.15491677    -0.18570
C2079       C  0.01731295  0.27164960  0.18466108     0.09760
C2080       C  0.98889437  0.27873112  0.20031980    -0.07370
C2081       C  0.95993637  0.27308789  0.18318861    -0.18600
C2082       C  0.95938501  0.26166878  0.15136991     0.09790
S2083       S  0.05610962  0.28216267  0.20073221    -0.33570
S2084       S  0.92175368  0.25990692  0.13055515    -0.33570
H2085       H  0.92876603  0.23340752  0.11285152     0.27800
H2086       H  0.04808600  0.31353243  0.20600434     0.27790
H2087       H  0.03916442  0.25199587  0.14459102     0.18380
H2088       H  0.93751087  0.27772226  0.19434797     0.18390
C2089       C  0.85910672  0.50847615  0.28138214    -0.07440
C2090       C  0.84299451  0.53455519  0.26782017    -0.18570
C2091       C  0.81103288  0.53232961  0.25714732     0.09760
C2092       C  0.79181443  0.50416847  0.26318620    -0.07370
C2093       C  0.80710563  0.47857651  0.27913924    -0.18600
C2094       C  0.84038178  0.47990534  0.28676851     0.09790
S2095       S  0.79829635  0.56540758  0.23247767    -0.33570
S2096       S  0.85798991  0.44353641  0.30019115    -0.33570
H2097       H  0.88420156  0.45814758  0.31573728     0.27800
H2098       H  0.76660257  0.56354329  0.24217562     0.27790
H2099       H  0.85671812  0.55644074  0.26207114     0.18380
H2100       H  0.79337717  0.45676435  0.28468237     0.18390
C2101       C  0.20820384  0.56770326  0.24976128    -0.07440
C2102       C  0.19534631  0.53936742  0.26410767    -0.18570
C2103       C  0.16690583  0.53772317  0.28189026     0.09760
C2104       C  0.14495903  0.56262721  0.28028338    -0.07370
C2105       C  0.15627153  0.59095206  0.26395369    -0.18600
C2106       C  0.18799314  0.59432175  0.25071378     0.09790
S2107       S  0.15691428  0.50018612  0.30244105    -0.33570
S2108       S  0.19976474  0.63234317  0.23272530    -0.33570
H2109       H  0.23193797  0.63057499  0.24136600     0.27800
H2110       H  0.13720952  0.51322180  0.32526772     0.27790
H2111       H  0.20849323  0.51803812  0.26316520     0.18380
H2112       H  0.14008903  0.61012377  0.26032348     0.18390
C2113       C  0.98231154  0.73145947  0.24562336    -0.07440
C2114       C  0.95884652  0.71333991  0.26333665    -0.18570
C2115       C  0.96296804  0.68135909  0.27356725     0.09760
C2116       C  0.99101607  0.66565018  0.26584791    -0.07370
C2117       C  0.01503482  0.68390547  0.24925371    -0.18600
C2118       C  0.01139913  0.71629633  0.23986404     0.09790
S2119       S  0.93022031  0.66087895  0.29447760    -0.33570
S2120       S  0.04499110  0.73673794  0.22039510    -0.33570
H2121       H  0.03990425  0.76622493  0.23375832     0.27800
H2122       H  0.94884883  0.63811958  0.31024771     0.27790
H2123       H  0.93630313  0.72375297  0.26821589     0.18380
H2124       H  0.03640706  0.67240702  0.24219412     0.18390
C2125       C  0.99756843  0.38230903  0.27832181    -0.07440
C2126       C  0.96822571  0.37117757  0.26502250    -0.18570
C2127       C  0.96435712  0.34017116  0.25180050     0.09760
C2128       C  0.99116279  0.32059112  0.24794655    -0.07370
C2129       C  0.01997700  0.33202416  0.26166160    -0.18600
C2130       C  0.02276627  0.36056636  0.27820110     0.09790
S2131       S  0.92426507  0.32689604  0.24160340    -0.33570
S2132       S  0.05976175  0.36733398  0.29973876    -0.33570
H2133       H  0.04638246  0.38558307  0.32334885     0.27800
H2134       H  0.92898697  0.29429438  0.24583439     0.27790
H2135       H  0.94819709  0.38659595  0.26473455     0.18380
H2136       H  0.04049996  0.31731536  0.26140475     0.18390
C2137       C  0.01773388  0.37652433  0.17611830    -0.07440
C2138       C  0.04841402  0.36992908  0.16621485    -0.18570
C2139       C  0.05445041  0.37025617  0.13357600     0.09760
C2140       C  0.02834941  0.37041885  0.11212442    -0.07370
C2141       C  0.99713844  0.36639542  0.12382805    -0.18600
C2142       C  0.99189403  0.36786090  0.15646337     0.09790
S2143       S  0.09522204  0.37138882  0.11928717    -0.33570
S2144       S  0.95204062  0.36232693  0.17173332    -0.33570
H2145       H  0.95774902  0.38135876  0.19821048     0.27800
H2146       H  0.11006932  0.36906597  0.14942617     0.27790
H2147       H  0.06826729  0.37270172  0.18271817     0.18380
H2148       H  0.97727196  0.36119685  0.10786656     0.18390
C2149       C  0.98821277  0.62386536  0.11365201    -0.07440
C2150       C  0.97652593  0.60883287  0.08651444    -0.18570
C2151       C  0.95383062  0.62300077  0.06722266     0.09760
C2152       C  0.94381689  0.65333694  0.07468748    -0.07370
C2153       C  0.95059354  0.66498577  0.10504460    -0.18600
C2154       C  0.97571599  0.65265008  0.12258954     0.09790
S2155       S  0.94151344  0.60394810  0.03116189    -0.33570
S2156       S  0.99222391  0.67477683  0.15538846    -0.33570
H2157       H  0.02226459  0.66104412  0.15548879     0.27800
H2158       H  0.95616660  0.57490611  0.03721436     0.27790
H2159       H  0.98440114  0.58552555  0.08094820     0.18380
H2160       H  0.94235464  0.68807047  0.11108305     0.18390
C2161       C  0.28348075  0.50760664  0.85805744    -0.07440
C2162       C  0.28270330  0.47572752  0.84874784    -0.18570
C2163       C  0.27242048  0.46683464  0.81752832     0.09760
C2164       C  0.26040141  0.48996005  0.79491690    -0.07370
C2165       C  0.26312818  0.52175004  0.80401559    -0.18600
C2166       C  0.27564615  0.53072256  0.83388434     0.09790
S2167       S  0.27410498  0.42520357  0.80970199    -0.33570
S2168       S  0.28019476  0.57287584  0.84005945    -0.33570
H2169       H  0.30416851  0.57030930  0.86356042     0.27800
H2170       H  0.26749845  0.42770460  0.77715908     0.27790
H2171       H  0.28818684  0.45732633  0.86642143     0.18380
H2172       H  0.25609817  0.54025043  0.78707760     0.18390
C2173       C  0.27599691  0.55140842  0.13965608    -0.07440
C2174       C  0.27818328  0.52851512  0.16491416    -0.18570
C2175       C  0.26496253  0.53242282  0.19532326     0.09760
C2176       C  0.25256689  0.56185756  0.20374816    -0.07370
C2177       C  0.25136853  0.58554644  0.17896837    -0.18600
C2178       C  0.26170906  0.58025882  0.14721307     0.09790
S2179       S  0.25918714  0.49674498  0.21996909    -0.33570
S2180       S  0.25299389  0.60991679  0.11687251    -0.33570
H2181       H  0.27790875  0.60252510  0.09655543     0.27800
H2182       H  0.22580245  0.49726042  0.21875017     0.27790
H2183       H  0.28656262  0.50526696  0.15965993     0.18380
H2184       H  0.24143339  0.60809286  0.18398227     0.18390
C2185       C  0.27190665  0.66298458  0.00253763    -0.07440
C2186       C  0.25573457  0.67923443  0.97767677    -0.18570
C2187       C  0.23951097  0.70688464  0.98247412     0.09760
C2188       C  0.24645452  0.72483896  0.00959070    -0.07370
C2189       C  0.26544192  0.71030976  0.03384292    -0.18600
C2190       C  0.27738325  0.67942411  0.03099020     0.09790
S2191       S  0.20664594  0.71499664  0.95594230    -0.33570
S2192       S  0.29987618  0.66298557  0.06372546    -0.33570
H2193       H  0.31937348  0.64525261  0.04453828     0.27800
H2194       H  0.20783245  0.68809785  0.93710353     0.27790
H2195       H  0.25197220  0.66781188  0.95513949     0.18380
H2196       H  0.27098012  0.72310273  0.05521518     0.18390
C2197       C  0.26404089  0.38064407  0.98649493    -0.07440
C2198       C  0.25362510  0.35896699  0.01114019    -0.18570
C2199       C  0.23928098  0.32877591  0.00616105     0.09760
C2200       C  0.23722454  0.31622426  0.97506331    -0.07370
C2201       C  0.24827319  0.33755566  0.94976193    -0.18600
C2202       C  0.26085868  0.36933546  0.95499078     0.09790
S2203       S  0.22276806  0.30829962  0.04120535    -0.33570
S2204       S  0.27228061  0.39400676  0.92070663    -0.33570
H2205       H  0.29926125  0.40810866  0.93551434     0.27800
H2206       H  0.24019927  0.32477687  0.06466549     0.27790
H2207       H  0.25543943  0.36627934  0.03556105     0.18380
H2208       H  0.24787953  0.32907178  0.92565758     0.18390
C2209       C  0.16043400  0.55988910  0.12055293    -0.07440
C2210       C  0.13971625  0.58491061  0.11470775    -0.18570
C2211       C  0.12402518  0.59722920  0.14056308     0.09760
C2212       C  0.12770556  0.58145752  0.17033048    -0.07370
C2213       C  0.15781324  0.56998870  0.17682980    -0.18600
C2214       C  0.17151893  0.55394037  0.15225605     0.09790
S2215       S  0.09228866  0.62401494  0.13339207    -0.33570
S2216       S  0.19380161  0.52002939  0.16433314    -0.33570
H2217       H  0.16951931  0.49823734  0.15462914     0.27800
H2218       H  0.08355409  0.62504162  0.16576300     0.27790
H2219       H  0.13294707  0.59199440  0.09057231     0.18380
H2220       H  0.16313513  0.56202196  0.20100161     0.18390
C2221       C  0.15374246  0.32359222  0.95884491    -0.07440
C2222       C  0.16675309  0.32409966  0.98960412    -0.18570
C2223       C  0.16829878  0.35311260  0.00384862     0.09760
C2224       C  0.16938660  0.38050538  0.98386120    -0.07370
C2225       C  0.16874028  0.37833241  0.95037981    -0.18600
C2226       C  0.16179975  0.34863393  0.93755964     0.09790
S2227       S  0.16145291  0.35376015  0.04648566    -0.33570
S2228       S  0.15002653  0.34509892  0.89677899    -0.33570
H2229       H  0.15120022  0.31193689  0.89674514     0.27800
H2230       H  0.14085912  0.37929881  0.04486031     0.27790
H2231       H  0.16404588  0.30312216  0.00527575     0.18380
H2232       H  0.17093951  0.39947593  0.93491571     0.18390
C2233       C  0.07601553  0.66089789  0.93088525    -0.07440
C2234       C  0.06458920  0.63186826  0.94481163    -0.18570
C2235       C  0.08370028  0.61507295  0.96602459     0.09760
C2236       C  0.11650507  0.62403149  0.96828956    -0.07370
C2237       C  0.12877371  0.65054580  0.95027846    -0.18600
C2238       C  0.10890161  0.66911453  0.93173054     0.09790
S2239       S  0.06366061  0.58547079  0.99194549    -0.33570
S2240       S  0.12617969  0.70547284  0.91383443    -0.33570
H2241       H  0.09821943  0.71560230  0.89920418     0.27800
H2242       H  0.07999948  0.59543490  0.01958413     0.27790
H2243       H  0.03913770  0.62581463  0.94471810     0.18380
H2244       H  0.15396977  0.65747447  0.95124006     0.18390
C2245       C  0.21455379  0.48759684  0.74930712    -0.07440
C2246       C  0.20642503  0.51374423  0.72930020    -0.18570
C2247       C  0.17528290  0.51740799  0.71671725     0.09760
C2248       C  0.14920293  0.49633564  0.72593978    -0.07370
C2249       C  0.15708759  0.46999095  0.74592454    -0.18600
C2250       C  0.18910513  0.46499617  0.75671222     0.09790
S2251       S  0.16944433  0.55186300  0.69087250    -0.33570
S2252       S  0.19696239  0.42979040  0.78041118    -0.33570
H2253       H  0.16550192  0.41664795  0.78079758     0.27800
H2254       H  0.14103555  0.53984095  0.67680808     0.27790
H2255       H  0.22464124  0.53198509  0.72341940     0.18380
H2256       H  0.13772192  0.45432222  0.75485990     0.18390
C2257       C  0.99284919  0.39969139  0.74806137    -0.07440
C2258       C  0.96575732  0.38092105  0.75806034    -0.18570
C2259       C  0.96689461  0.34800995  0.76482290     0.09760
C2260       C  0.99565059  0.33217835  0.76126808    -0.07370
C2261       C  0.02259218  0.35080810  0.75015895    -0.18600
C2262       C  0.02155489  0.38395712  0.74377655     0.09790
S2263       S  0.93073420  0.32746480  0.77847409    -0.33570
S2264       S  0.05807733  0.40502847  0.73190306    -0.33570
H2265       H  0.04402112  0.42035086  0.70532075     0.27800
H2266       H  0.94425500  0.31814117  0.80791498     0.27790
H2267       H  0.94344279  0.39228632  0.76188242     0.18380
H2268       H  0.04472064  0.33979187  0.74552942     0.18390
C2269       C  0.02794345  0.67929846  0.73495013    -0.07440
C2270       C  0.99784555  0.69266802  0.73218106    -0.18570
C2271       C  0.99332036  0.72464742  0.74047889     0.09760
C2272       C  0.01894562  0.74381536  0.75354042    -0.07370
C2273       C  0.04834641  0.72958737  0.75724158    -0.18600
C2274       C  0.05369604  0.69945193  0.74585838     0.09790
S2275       S  0.95391605  0.73896379  0.73490997    -0.33570
S2276       S  0.09517016  0.68958598  0.74362912    -0.33570
H2277       H  0.09118674  0.67229343  0.71562826     0.27800
H2278       H  0.95365623  0.75315984  0.76460194     0.27790
H2279       H  0.97757871  0.67801153  0.72441929     0.18380
H2280       H  0.06867429  0.74321700  0.76582004     0.18390
C2281       C  0.87364685  0.56695413  0.73551622    -0.07440
C2282       C  0.86010189  0.59455111  0.74691568    -0.18570
C2283       C  0.82824638  0.59440568  0.75878504     0.09760
C2284       C  0.80923664  0.56566508  0.76149642    -0.07370
C2285       C  0.82212833  0.53888660  0.74781131    -0.18600
C2286       C  0.85308587  0.53937336  0.73459775     0.09790
S2287       S  0.81374811  0.63149565  0.77157733    -0.33570
S2288       S  0.86673240  0.50234476  0.72050949    -0.33570
H2289       H  0.89119330  0.51627447  0.70107106     0.27800
H2290       H  0.78152657  0.62463339  0.76390268     0.27790
H2291       H  0.87521537  0.61594208  0.74886869     0.18380
H2292       H  0.80861591  0.51664761  0.74822294     0.18390
C2293       C  0.14330795  0.47923966  0.84366982    -0.07440
C2294       C  0.13928614  0.45004757  0.86121529    -0.18570
C2295       C  0.16650504  0.43694300  0.87489677     0.09760
C2296       C  0.19052581  0.45946704  0.88129641    -0.07370
C2297       C  0.19999626  0.47696842  0.85373440    -0.18600
C2298       C  0.17516875  0.49072004  0.83635501     0.09790
S2299       S  0.18004838  0.40218999  0.85677291    -0.33570
S2300       S  0.18465386  0.52639297  0.81239441    -0.33570
H2301       H  0.20665262  0.53918286  0.83447964     0.27800
H2302       H  0.20862274  0.40118674  0.87463398     0.27790
H2303       H  0.11641976  0.43781574  0.86407633     0.18380
H2304       H  0.22279767  0.48945116  0.85349695     0.18390
C2305       C  0.01934344  0.41197223  0.85003244    -0.07440
C2306       C  0.05237236  0.40849462  0.84771989    -0.18570
C2307       C  0.06374979  0.37819724  0.84411695     0.09760
C2308       C  0.04171279  0.35231365  0.84672359    -0.07370
C2309       C  0.01183749  0.35784197  0.83312725    -0.18600
C2310       C  0.99849960  0.38653088  0.84026596     0.09790
S2311       S  0.10477084  0.37318391  0.83479762    -0.33570
S2312       S  0.95548244  0.38719147  0.84095341    -0.33570
H2313       H  0.95442573  0.40410675  0.86926538     0.27800
H2314       H  0.10325352  0.34002421  0.84022582     0.27790
H2315       H  0.06850654  0.42910482  0.84764425     0.18380
H2316       H  0.99569736  0.33773192  0.82860474     0.18390
C2317       C  0.02907703  0.67396639  0.83477851    -0.07440
C2318       C  0.04559882  0.70029065  0.84657262    -0.18570
C2319       C  0.03023840  0.72858355  0.84954966     0.09760
C2320       C  0.99861912  0.73099334  0.83729018    -0.07370
C2321       C  0.98681814  0.70755436  0.81687109    -0.18600
C2322       C  0.00023125  0.67775188  0.81779718     0.09790
S2323       S  0.04807511  0.75415468  0.87906282    -0.33570
S2324       S  0.97726737  0.64526663  0.80051375    -0.33570
H2325       H  0.00212532  0.62443514  0.79723195     0.27800
H2326       H  0.02147672  0.77111081  0.88638573     0.27790
H2327       H  0.06872935  0.69731903  0.85762012     0.18380
H2328       H  0.96304558  0.70945293  0.80679291     0.18390
C2329       C  0.73556777  0.38967927  0.01290798    -0.07440
C2330       C  0.74959697  0.37660124  0.04067163    -0.18570
C2331       C  0.75612900  0.34402023  0.04372320     0.09760
C2332       C  0.74888754  0.32328875  0.01850182    -0.07370
C2333       C  0.73444132  0.33645406  0.99087475    -0.18600
C2334       C  0.72763393  0.36892789  0.98794567     0.09790
S2335       S  0.77457231  0.33047112  0.08012481    -0.33570
S2336       S  0.71049499  0.38297421  0.95076796    -0.33570
H2337       H  0.69652297  0.40960857  0.96327821     0.27800
H2338       H  0.74850059  0.30946576  0.08774253     0.27790
H2339       H  0.75721916  0.39225255  0.05950135     0.18380
H2340       H  0.72926710  0.32147528  0.97085766     0.18390
C2341       C  0.74740810  0.66653810  0.03886409    -0.07440
C2342       C  0.76662930  0.68241555  0.06174700    -0.18570
C2343       C  0.77288256  0.71526576  0.06078675     0.09760
C2344       C  0.75948644  0.73459804  0.03652565    -0.07370
C2345       C  0.73920957  0.71920239  0.01396286    -0.18600
C2346       C  0.73370574  0.68567213  0.01443605     0.09790
S2347       S  0.79765567  0.73059058  0.09240298    -0.33570
S2348       S  0.70993579  0.66890813  0.98291427    -0.33570
H2349       H  0.73317367  0.64749709  0.97477063     0.27800
H2350       H  0.77798526  0.75580537  0.09822126     0.27790
H2351       H  0.77761381  0.66913917  0.08116081     0.18380
H2352       H  0.72897230  0.73319496  0.99463076     0.18390
C2353       C  0.74173053  0.49702864  0.22267379    -0.07440
C2354       C  0.72635330  0.52205359  0.20640336    -0.18570
C2355       C  0.71134074  0.51871894  0.17636178     0.09760
C2356       C  0.71425182  0.49069066  0.15918641    -0.07370
C2357       C  0.72703842  0.46460339  0.17633109    -0.18600
C2358       C  0.73945836  0.46706645  0.20789284     0.09790
S2359       S  0.69400366  0.55293442  0.15685635    -0.33570
S2360       S  0.75282181  0.43106211  0.22718732    -0.33570
H2361       H  0.74776321  0.44000988  0.25854182     0.27800
H2362       H  0.69639212  0.57307716  0.18291416     0.27790
H2363       H  0.72609349  0.54480682  0.21694320     0.18380
H2364       H  0.72991776  0.44271983  0.16403027     0.18390
C2365       C  0.75203353  0.55590987  0.87983576    -0.07440
C2366       C  0.76684194  0.53168288  0.86338479    -0.18570
C2367       C  0.77848693  0.53567144  0.83195206     0.09760
C2368       C  0.77163075  0.56307968  0.81322911    -0.07370
C2369       C  0.75564521  0.58727400  0.82881196    -0.18600
C2370       C  0.74684537  0.58443380  0.86180303     0.09790
S2371       S  0.80131165  0.50449112  0.81593137    -0.33570
S2372       S  0.73051965  0.61837665  0.87957263    -0.33570
H2373       H  0.71391590  0.60104055  0.90397533     0.27800
H2374       H  0.79725548  0.48217047  0.84154471     0.27790
H2375       H  0.77152619  0.50964243  0.87631535     0.18380
H2376       H  0.74996154  0.60862870  0.81516612     0.18390
C2377       C  0.91532444  0.60787000  0.87385411    -0.07440
C2378       C  0.92413392  0.62256843  0.90217176    -0.18570
C2379       C  0.90335153  0.61975573  0.92802087     0.09760
C2380       C  0.87476928  0.60141712  0.92497674    -0.07370
C2381       C  0.86213118  0.59771049  0.89420760    -0.18600
C2382       C  0.88252245  0.60131895  0.86797776     0.09790
S2383       S  0.91549180  0.63720519  0.96442392    -0.33570
S2384       S  0.86774886  0.59189398  0.82882652    -0.33570
H2385       H  0.83512854  0.58996874  0.83684986     0.27800
H2386       H  0.88447287  0.63711599  0.97714512     0.27790
H2387       H  0.94848456  0.63154174  0.90583861     0.18380
H2388       H  0.83836581  0.58701402  0.89113122     0.18390
C2389       C  0.84418206  0.44850531  0.14441727    -0.07440
C2390       C  0.86413212  0.42753600  0.12997866    -0.18570
C2391       C  0.89530617  0.42602367  0.14170087     0.09760
C2392       C  0.90152643  0.43917639  0.17173054    -0.07370
C2393       C  0.87537139  0.44250248  0.19209045    -0.18600
C2394       C  0.84657928  0.45075692  0.17758847     0.09790
S2395       S  0.92617413  0.41962998  0.11294990    -0.33570
S2396       S  0.81953559  0.47430236  0.19838116    -0.33570
H2397       H  0.84348041  0.48870374  0.21723456     0.27800
H2398       H  0.95106520  0.41584079  0.13479044     0.27790
H2399       H  0.86003230  0.42318836  0.10509751     0.18380
H2400       H  0.87970988  0.44881951  0.21665066     0.18390
C2401       C  0.90284876  0.38201471  0.00879782    -0.07440
C2402       C  0.90608985  0.38472070  0.04204097    -0.18570
C2403       C  0.87835424  0.38634010  0.06018021     0.09760
C2404       C  0.85093190  0.39496974  0.04348212    -0.07370
C2405       C  0.84527617  0.37713201  0.01647951    -0.18600
C2406       C  0.87145236  0.37584642  0.99601844     0.09790
S2407       S  0.87430577  0.35921700  0.09429965    -0.33570
S2408       S  0.86278008  0.37012197  0.95432131    -0.33570
H2409       H  0.88803376  0.39058215  0.94304485     0.27800
H2410       H  0.84168126  0.36430205  0.09902025     0.27790
H2411       H  0.92862774  0.37999946  0.05371089     0.18380
H2412       H  0.82138667  0.37538385  0.00639306     0.18390
C2413       C  0.84808597  0.66070986  0.03893489    -0.07440
C2414       C  0.86209919  0.68691866  0.05372187    -0.18570
C2415       C  0.86304275  0.71664149  0.03804987     0.09760
C2416       C  0.84864870  0.71987910  0.00742183    -0.07370
C2417       C  0.82748222  0.69546242  0.99747806    -0.18600
C2418       C  0.82893091  0.66507104  0.01141928     0.09790
S2419       S  0.89019116  0.74604989  0.05481789    -0.33570
S2420       S  0.80944645  0.63300847  0.99000905    -0.33570
H2421       H  0.80809779  0.60972668  0.01468400     0.27800
H2422       H  0.89698433  0.76383673  0.02676290     0.27790
H2423       H  0.87511064  0.68360472  0.07596331     0.18380
H2424       H  0.81620367  0.69758486  0.97418572     0.18390
C2425       C  0.26557889  0.48758198  0.70141349    -0.07440
C2426       C  0.27397807  0.51704994  0.68626831    -0.18570
C2427       C  0.26629958  0.52405886  0.65413339     0.09760
C2428       C  0.25132790  0.50052061  0.63503392    -0.07370
C2429       C  0.24169486  0.47134886  0.65009839    -0.18600
C2430       C  0.24809135  0.46476421  0.68292647     0.09790
S2431       S  0.27510796  0.56390844  0.63790723    -0.33570
S2432       S  0.23395414  0.42629995  0.69857019    -0.33570
H2433       H  0.25154214  0.42637538  0.72683989     0.27800
H2434       H  0.28747928  0.57708890  0.66601971     0.27790
H2435       H  0.28582439  0.53527617  0.70012415     0.18380
H2436       H  0.23039257  0.45298128  0.63590934     0.18390
C2437       C  0.22554154  0.54352792  0.35638188    -0.07440
C2438       C  0.23356152  0.57566185  0.34792773    -0.18570
C2439       C  0.24816219  0.58479241  0.31798918     0.09760
C2440       C  0.25758145  0.56146316  0.29640271    -0.07370
C2441       C  0.25058845  0.52981424  0.30552435    -0.18600
C2442       C  0.23273509  0.52061931  0.33271328     0.09790
S2443       S  0.25497272  0.62652523  0.30912547    -0.33570
S2444       S  0.22596099  0.47755099  0.33609240    -0.33570
H2445       H  0.19476933  0.47686360  0.34811224     0.27800
H2446       H  0.28415695  0.62262076  0.29396785     0.27790
H2447       H  0.22856534  0.59380379  0.36465656     0.18380
H2448       H  0.25676854  0.51152982  0.28948985     0.18390
C2449       C  0.26446070  0.71810485  0.46463625    -0.07440
C2450       C  0.26405671  0.70663723  0.49658803    -0.18570
C2451       C  0.25356357  0.67565523  0.50571703     0.09760
C2452       C  0.24441457  0.65345153  0.48258791    -0.07370
C2453       C  0.24404121  0.66438698  0.45037212    -0.18600
C2454       C  0.25347236  0.69632187  0.44121790     0.09790
S2455       S  0.25222030  0.66585364  0.54802302    -0.33570
S2456       S  0.25147409  0.70698858  0.39922537    -0.33570
H2457       H  0.26964773  0.73560547  0.40012436     0.27800
H2458       H  0.22741788  0.64235259  0.54605985     0.27790
H2459       H  0.26950804  0.72250056  0.51540265     0.18380
H2460       H  0.23800513  0.64761592  0.43204562     0.18390
C2461       C  0.24180936  0.30667795  0.49680355    -0.07440
C2462       C  0.24860886  0.32373641  0.52489441    -0.18570
C2463       C  0.23722656  0.35474610  0.52966880     0.09760
C2464       C  0.21903110  0.37030471  0.50562738    -0.07370
C2465       C  0.21027714  0.35210423  0.47906356    -0.18600
C2466       C  0.22221115  0.32202139  0.47362191     0.09790
S2467       S  0.24738373  0.37356606  0.56650157    -0.33570
S2468       S  0.21342168  0.30709917  0.43453657    -0.33570
H2469       H  0.23058482  0.27966562  0.43718578     0.27800
H2470       H  0.22231121  0.39468626  0.56501383     0.27790
H2471       H  0.26259276  0.31260373  0.54364973     0.18380
H2472       H  0.19667426  0.36327858  0.45997069     0.18390
C2473       C  0.51149539  0.67153941  0.77269282    -0.07440
C2474       C  0.54293582  0.68484171  0.77416372    -0.18570
C2475       C  0.55069242  0.71649155  0.76255445     0.09760
C2476       C  0.52682117  0.73561806  0.74805351    -0.07370
C2477       C  0.49560276  0.72220047  0.74739502    -0.18600
C2478       C  0.48757626  0.69170136  0.76059022     0.09790
S2479       S  0.59189801  0.73010014  0.76538439    -0.33570
S2480       S  0.44573034  0.67949205  0.76061996    -0.33570
H2481       H  0.44782818  0.65764439  0.78670025     0.27800
H2482       H  0.59115016  0.75157584  0.73916339     0.27790
H2483       H  0.56196103  0.66992254  0.78237390     0.18380
H2484       H  0.47664221  0.73619714  0.73751723     0.18390
C2485       C  0.71481435  0.55978266  0.77301875    -0.07440
C2486       C  0.69634786  0.58729808  0.76914166    -0.18570
C2487       C  0.66477392  0.58893202  0.78230531     0.09760
C2488       C  0.65228741  0.56424893  0.80326112    -0.07370
C2489       C  0.67406808  0.54098299  0.81250886    -0.18600
C2490       C  0.70238750  0.53633151  0.79558923     0.09790
S2491       S  0.64174635  0.62292295  0.77220403    -0.33570
S2492       S  0.72002639  0.49853787  0.80264819    -0.33570
H2493       H  0.69269013  0.48159152  0.81463006     0.27800
H2494       H  0.61378905  0.60519391  0.76449834     0.27790
H2495       H  0.70605832  0.60703868  0.75453726     0.18380
H2496       H  0.66614708  0.52275676  0.82999308     0.18390
C2497       C  0.37506959  0.50155403  0.76266225    -0.07440
C2498       C  0.36391066  0.47117764  0.75356898    -0.18570
C2499       C  0.33153319  0.46473142  0.74515270     0.09760
C2500       C  0.30893101  0.48884179  0.74618733    -0.07370
C2501       C  0.32026900  0.51907727  0.75568109    -0.18600
C2502       C  0.35243949  0.52546982  0.76419897     0.09790
S2503       S  0.32103192  0.42575227  0.73139937    -0.33570
S2504       S  0.36359972  0.56545025  0.77524730    -0.33570
H2505       H  0.39011579  0.55719893  0.79402086     0.27800
H2506       H  0.30743918  0.43742393  0.70283489     0.27790
H2507       H  0.38098686  0.45288881  0.75073731     0.18380
H2508       H  0.30401925  0.53834342  0.75574175     0.18390
C2509       C  0.50255689  0.39076575  0.76069197    -0.07440
C2510       C  0.52625307  0.37579158  0.74339229    -0.18570
C2511       C  0.52263648  0.34521851  0.73134393     0.09760
C2512       C  0.49400070  0.32665917  0.73644638    -0.07370
C2513       C  0.46923912  0.34175664  0.75275834    -0.18600
C2514       C  0.47322287  0.37306069  0.76496717     0.09790
S2515       S  0.55649439  0.33105245  0.71068973    -0.33570
S2516       S  0.44071615  0.38823022  0.78678060    -0.33570
H2517       H  0.46037656  0.40294850  0.80972196     0.27800
H2518       H  0.57914319  0.35580035  0.71658926     0.27790
H2519       H  0.54881854  0.38829950  0.73870504     0.18380
H2520       H  0.44695607  0.32840734  0.75738931     0.18390
C2521       C  0.44119246  0.47634056  0.62050640    -0.07440
C2522       C  0.45083864  0.46860797  0.58983223    -0.18570
C2523       C  0.42810034  0.46238491  0.56605007     0.09760
C2524       C  0.39548637  0.46565449  0.57301032    -0.07370
C2525       C  0.38608152  0.46642265  0.60505697    -0.18600
C2526       C  0.40871502  0.47138113  0.62913731     0.09790
S2527       S  0.44227827  0.45382649  0.52693606    -0.33570
S2528       S  0.39548716  0.47358382  0.67007077    -0.33570
H2529       H  0.36294454  0.46579328  0.66462512     0.27800
H2530       H  0.41676204  0.43199174  0.52073360     0.27790
H2531       H  0.47593105  0.47014878  0.58353559     0.18380
H2532       H  0.36089169  0.46666500  0.61074887     0.18390
C2533       C  0.80005274  0.67437985  0.53214628    -0.07440
C2534       C  0.78344946  0.68254473  0.55968956    -0.18570
C2535       C  0.76833642  0.71245825  0.56119899     0.09760
C2536       C  0.76482722  0.73249745  0.53313403    -0.07370
C2537       C  0.78179519  0.72388829  0.50617076    -0.18600
C2538       C  0.80187512  0.69807820  0.50690224     0.09790
S2539       S  0.75460120  0.72481744  0.59912935    -0.33570
S2540       S  0.82928139  0.69641534  0.47386951    -0.33570
H2541       H  0.85093479  0.67712300  0.49044036     0.27800
H2542       H  0.76811719  0.70031395  0.61771875     0.27790
H2543       H  0.78178636  0.66553899  0.57967093     0.18380
H2544       H  0.78169629  0.73928231  0.48488458     0.18390
C2545       C  0.75390295  0.55317175  0.72180400    -0.07440
C2546       C  0.76135080  0.57916685  0.70020191    -0.18570
C2547       C  0.76959539  0.57500202  0.66754312     0.09760
C2548       C  0.77205770  0.54398985  0.65556115    -0.07370
C2549       C  0.76495127  0.51839219  0.67718745    -0.18600
C2550       C  0.75579626  0.52231962  0.70909098     0.09790
S2551       S  0.77380338  0.61011406  0.64187368    -0.33570
S2552       S  0.74410963  0.48616550  0.73069098    -0.33570
H2553       H  0.76336459  0.49244985  0.75715497     0.27800
H2554       H  0.79784069  0.59855406  0.62279234     0.27790
H2555       H  0.76025146  0.60306801  0.70872135     0.18380
H2556       H  0.76506259  0.49442468  0.66855064     0.18390
C2557       C  0.77333799  0.39196089  0.51127309    -0.07440
C2558       C  0.76655634  0.37630797  0.48274906    -0.18570
C2559       C  0.75191893  0.34525679  0.48260924     0.09760
C2560       C  0.74252388  0.32897295  0.51197410    -0.07370
C2561       C  0.75021188  0.34443268  0.54033293    -0.18600
C2562       C  0.76601112  0.37473152  0.54030276     0.09790
S2563       S  0.74273487  0.32989592  0.44367081    -0.33570
S2564       S  0.77416471  0.39159388  0.57861754    -0.33570
H2565       H  0.79836102  0.41347286  0.56763213     0.27800
H2566       H  0.72493248  0.30241932  0.45375399     0.27790
H2567       H  0.77024955  0.38937562  0.46020656     0.18380
H2568       H  0.74399033  0.33259266  0.56297472     0.18390
C2569       C  0.78136704  0.51284012  0.37592666    -0.07440
C2570       C  0.78421943  0.53710944  0.35196708    -0.18570
C2571       C  0.76575974  0.53690681  0.32415856     0.09760
C2572       C  0.74805090  0.50927274  0.31535542    -0.07370
C2573       C  0.74790207  0.48296926  0.33752178    -0.18600
C2574       C  0.76291027  0.48503280  0.36816306     0.09790
S2575       S  0.76178492  0.57475956  0.30419072    -0.33570
S2576       S  0.75741206  0.45182867  0.39608441    -0.33570
H2577       H  0.75167779  0.47036032  0.42249323     0.27800
H2578       H  0.73540998  0.58133146  0.32312990     0.27790
H2579       H  0.79755779  0.55903776  0.35706084     0.18380
H2580       H  0.73523218  0.46105274  0.33139053     0.18390
C2581       C  0.67486681  0.56009093  0.63809469    -0.07440
C2582       C  0.67698981  0.59235045  0.64527148    -0.18570
C2583       C  0.67950023  0.60072447  0.67727794     0.09760
C2584       C  0.67535598  0.57649879  0.70099376    -0.07370
C2585       C  0.68766151  0.54754487  0.69358411    -0.18600
C2586       C  0.68213325  0.53715120  0.66283264     0.09790
S2587       S  0.69049106  0.64084032  0.68723498    -0.33570
S2588       S  0.67947544  0.49447502  0.65910968    -0.33570
H2589       H  0.65073402  0.49475786  0.64153516     0.27800
H2590       H  0.67906200  0.63782665  0.71851545     0.27790
H2591       H  0.67713413  0.61033767  0.62634389     0.18380
H2592       H  0.69015519  0.52962506  0.71258374     0.18390
C2593       C  0.65088666  0.79249668  0.51037285    -0.07440
C2594       C  0.66191677  0.79261198  0.54224496    -0.18570
C2595       C  0.69349185  0.78347528  0.55081630     0.09760
C2596       C  0.71428446  0.77089684  0.52766146    -0.07370
C2597       C  0.70211640  0.76954210  0.49649909    -0.18600
C2598       C  0.67275819  0.78215345  0.48733822     0.09790
S2599       S  0.70452442  0.78767732  0.59206589    -0.33570
S2600       S  0.66503625  0.78497171  0.44482397    -0.33570
H2601       H  0.64656232  0.81201589  0.44619297     0.27800
H2602       H  0.73748086  0.78596038  0.58805312     0.27790
H2603       H  0.64582377  0.79942904  0.56070712     0.18380
H2604       H  0.71651728  0.75965248  0.47831164     0.18390
C2605       C  0.52427472  0.80345713  0.63598318    -0.07440
C2606       C  0.50018376  0.80881090  0.65822041    -0.18570
C2607       C  0.50139332  0.79796558  0.69055809     0.09760
C2608       C  0.52847410  0.78228808  0.70299348    -0.07370
C2609       C  0.55341172  0.77801738  0.68097419    -0.18600
C2610       C  0.55156828  0.78813843  0.64812960     0.09790
S2611       S  0.46539943  0.80023888  0.71343023    -0.33570
S2612       S  0.58379966  0.77869688  0.62235889    -0.33570
H2613       H  0.58046235  0.80504852  0.60125177     0.27800
H2614       H  0.45222338  0.82518501  0.69518579     0.27790
H2615       H  0.47830944  0.81871472  0.64922428     0.18380
H2616       H  0.57439235  0.76599879  0.68908421     0.18390
C2617       C  0.37047880  0.79522345  0.46473308    -0.07440
C2618       C  0.34806232  0.79915758  0.48874477    -0.18570
C2619       C  0.31862389  0.78191390  0.48953288     0.09760
C2620       C  0.30609911  0.76742959  0.46154434    -0.07370
C2621       C  0.32722601  0.76728539  0.43524843    -0.18600
C2622       C  0.35950400  0.77920059  0.43727200     0.09790
S2623       S  0.30467985  0.77130392  0.52916412    -0.33570
S2624       S  0.38616082  0.77093819  0.40533148    -0.33570
H2625       H  0.40918494  0.79503272  0.41220037     0.27800
H2626       H  0.31504943  0.79980470  0.54330008     0.27790
H2627       H  0.35664560  0.80976352  0.51057318     0.18380
H2628       H  0.31934345  0.75601828  0.41363587     0.18390
C2629       C  0.48945907  0.78631477  0.35462677    -0.07440
C2630       C  0.46624535  0.76264299  0.34630614    -0.18570
C2631       C  0.46618489  0.74813609  0.31617082     0.09760
C2632       C  0.49000162  0.75700032  0.29324591    -0.07370
C2633       C  0.51342007  0.78021767  0.30199548    -0.18600
C2634       C  0.51275747  0.79540352  0.33135816     0.09790
S2635       S  0.43632361  0.71733148  0.30773109    -0.33570
S2636       S  0.54440467  0.82454778  0.33912064    -0.33570
H2637       H  0.52796069  0.83980713  0.36298963     0.27800
H2638       H  0.41856000  0.71965431  0.33590131     0.27790
H2639       H  0.44961573  0.75363771  0.36452036     0.18380
H2640       H  0.53264709  0.78689732  0.28572762     0.18390
C2641       C  0.38904855  0.67756324  0.45481287    -0.07440
C2642       C  0.39901819  0.66112586  0.42840078    -0.18570
C2643       C  0.37820156  0.63857472  0.41524205     0.09760
C2644       C  0.34811560  0.63326586  0.42963473    -0.07370
C2645       C  0.33509593  0.65872912  0.44506905    -0.18600
C2646       C  0.35613629  0.67970055  0.46051097     0.09790
S2647       S  0.39458153  0.61120752  0.38857980    -0.33570
S2648       S  0.34109358  0.70130137  0.49295163    -0.33570
H2649       H  0.35066108  0.67839378  0.51594595     0.27800
H2650       H  0.36446553  0.59806238  0.37990079     0.27790
H2651       H  0.42405840  0.66164767  0.42186493     0.18380
H2652       H  0.31065955  0.65645273  0.45339593     0.18390
C2653       C  0.56488993  0.66421318  0.68018381    -0.07440
C2654       C  0.54240510  0.68599862  0.68862253    -0.18570
C2655       C  0.52824773  0.70353658  0.66401200     0.09760
C2656       C  0.54242047  0.70332705  0.63365181    -0.07370
C2657       C  0.57356385  0.69294886  0.63076361    -0.18600
C2658       C  0.58541264  0.67316020  0.65484200     0.09790
S2659       S  0.48866931  0.71770643  0.66967237    -0.33570
S2660       S  0.62050351  0.65209456  0.64714075    -0.33570
H2661       H  0.62169654  0.63827238  0.67820216     0.27800
H2662       H  0.47836354  0.69214768  0.69018937     0.27790
H2663       H  0.52882133  0.68119736  0.71007987     0.18380
H2664       H  0.58571974  0.69512692  0.60798185     0.18390
C2665       C  0.64134138  0.68793637  0.52733801    -0.07440
C2666       C  0.64864751  0.68255648  0.55974247    -0.18570
C2667       C  0.68075046  0.68053072  0.56868624     0.09760
C2668       C  0.70381621  0.68091736  0.54449965    -0.07370
C2669       C  0.69748649  0.69893372  0.51700830    -0.18600
C2670       C  0.66643743  0.69701011  0.50560926     0.09790
S2671       S  0.69123591  0.67181906  0.60932978    -0.33570
S2672       S  0.66217312  0.69948959  0.46258254    -0.33570
H2673       H  0.64039383  0.67310390  0.46134973     0.27800
H2674       H  0.72150779  0.66061082  0.60239998     0.27790
H2675       H  0.62993159  0.67893669  0.57735105     0.18380
H2676       H  0.71629744  0.70331028  0.49952347     0.18390
C2677       C  0.63679439  0.48976020  0.24715089    -0.07440
C2678       C  0.64920110  0.52099837  0.25008541    -0.18570
C2679       C  0.67980539  0.52752156  0.26358171     0.09760
C2680       C  0.69892545  0.50225088  0.27500216    -0.07370
C2681       C  0.68593797  0.47118013  0.27281016    -0.18600
C2682       C  0.65590456  0.46458896  0.25863327     0.09790
S2683       S  0.69376881  0.56842700  0.26552147    -0.33570
S2684       S  0.64314107  0.42337611  0.25406058    -0.33570
H2685       H  0.66801509  0.40964238  0.27169374     0.27800
H2686       H  0.67032422  0.58148625  0.24542814     0.27790
H2687       H  0.63444623  0.54042051  0.24266008     0.18380
H2688       H  0.70020759  0.45172851  0.28100905     0.18390
C2689       C  0.37038372  0.55282589  0.23576035    -0.07440
C2690       C  0.35754358  0.58331031  0.23380418    -0.18570
C2691       C  0.32492031  0.58868461  0.24038347     0.09760
C2692       C  0.30369720  0.56345448  0.25203021    -0.07370
C2693       C  0.31708765  0.53304000  0.25428592    -0.18600
C2694       C  0.34887231  0.52731875  0.24488966     0.09790
S2695       S  0.31313847  0.62907672  0.23486445    -0.33570
S2696       S  0.36122207  0.48690746  0.24684550    -0.33570
H2697       H  0.37429193  0.48872675  0.21594852     0.27800
H2698       H  0.28169387  0.62132024  0.22624346     0.27790
H2699       H  0.37332174  0.60352640  0.22715509     0.18380
H2700       H  0.30290184  0.51301569  0.26377990     0.18390
C2701       C  0.47095705  0.37080303  0.21815348    -0.07440
C2702       C  0.50021053  0.35704325  0.22635402    -0.18570
C2703       C  0.50190088  0.32667556  0.24189054     0.09760
C2704       C  0.47401117  0.30685428  0.24775321    -0.07370
C2705       C  0.44498049  0.31942815  0.23650890    -0.18600
C2706       C  0.44324432  0.35057568  0.22229337     0.09790
S2707       S  0.54061543  0.31596314  0.25608123    -0.33570
S2708       S  0.40450688  0.36396087  0.21060448    -0.33570
H2709       H  0.41602314  0.39033108  0.19178712     0.27800
H2710       H  0.52915711  0.30330254  0.28550910     0.27790
H2711       H  0.52192270  0.37201360  0.22479624     0.18380
H2712       H  0.42315367  0.30503473  0.23841752     0.18390
C2713       C  0.49555795  0.71116872  0.25125835    -0.07440
C2714       C  0.47225904  0.69061344  0.23691776    -0.18570
C2715       C  0.47964976  0.66018358  0.22537681     0.09760
C2716       C  0.51120263  0.64931992  0.22797425    -0.07370
C2717       C  0.53424007  0.67024886  0.24187699    -0.18600
C2718       C  0.52702463  0.70025813  0.25316924     0.09790
S2719       S  0.44851705  0.63539142  0.20799997    -0.33570
S2720       S  0.55976706  0.72417314  0.26872224    -0.33570
H2721       H  0.55286028  0.75133436  0.24991253     0.27800
H2722       H  0.42345252  0.65595535  0.21237668     0.27790
H2723       H  0.44821719  0.69877068  0.23428294     0.18380
H2724       H  0.55861260  0.66288254  0.24452569     0.18390
C2725       C  0.38293639  0.54617348  0.32604985    -0.07440
C2726       C  0.37162038  0.51446615  0.32402160    -0.18570
C2727       C  0.33891485  0.50776669  0.32290078     0.09760
C2728       C  0.31915768  0.53224293  0.33076974    -0.07370
C2729       C  0.32942578  0.56367484  0.32339222    -0.18600
C2730       C  0.36193060  0.57095850  0.31986011     0.09790
S2731       S  0.32402242  0.46703337  0.32402167    -0.33570
S2732       S  0.37568192  0.61153530  0.31056266    -0.33570
H2733       H  0.34526972  0.62368238  0.30533340     0.27800
H2734       H  0.33149663  0.46256019  0.35660994     0.27790
H2735       H  0.38788572  0.49514274  0.32462423     0.18380
H2736       H  0.31349277  0.58274405  0.32675575     0.18390
C2737       C  0.59501711  0.60956094  0.36214718    -0.07440
C2738       C  0.59640037  0.60234454  0.39501959    -0.18570
C2739       C  0.57563842  0.61761661  0.41479825     0.09760
C2740       C  0.55802874  0.64281147  0.40120199    -0.07370
C2741       C  0.56816258  0.65663832  0.37155284    -0.18600
C2742       C  0.58964187  0.64119608  0.35308738     0.09790
S2743       S  0.57270211  0.60369700  0.45585580    -0.33570
S2744       S  0.60002911  0.65785805  0.31410596    -0.33570
H2745       H  0.61573926  0.63110799  0.30417439     0.27800
H2746       H  0.57572290  0.63452043  0.46774626     0.27790
H2747       H  0.60651016  0.58034195  0.40357018     0.18380
H2748       H  0.55839719  0.67845486  0.36204038     0.18390
C2749       C  0.67571390  0.53689029  0.37415715    -0.07440
C2750       C  0.67753245  0.50366468  0.37695100    -0.18570
C2751       C  0.65683327  0.48417883  0.35910569     0.09760
C2752       C  0.63190819  0.49815216  0.34219666    -0.07370
C2753       C  0.63450849  0.53087785  0.33435266    -0.18600
C2754       C  0.65763614  0.55023790  0.34926043     0.09790
S2755       S  0.66153726  0.44202125  0.35935163    -0.33570
S2756       S  0.66172669  0.59180311  0.33775928    -0.33570
H2757       H  0.69053211  0.59828829  0.35401147     0.27800
H2758       H  0.64390810  0.43694050  0.33119493     0.27790
H2759       H  0.69336646  0.49303075  0.39442482     0.18380
H2760       H  0.61688484  0.54163267  0.31887313     0.18390
C2761       C  0.50401484  0.23357468  0.64453991    -0.07440
C2762       C  0.47401239  0.23749137  0.65940992    -0.18570
C2763       C  0.46957168  0.26180521  0.68129101     0.09760
C2764       C  0.49604123  0.27636385  0.69711336    -0.07370
C2765       C  0.52649266  0.26691222  0.68676185    -0.18600
C2766       C  0.53059191  0.24774201  0.66005468     0.09790
S2767       S  0.42912656  0.27271393  0.68859783    -0.33570
S2768       S  0.57052789  0.24252512  0.64613592    -0.33570
H2769       H  0.56207547  0.21777542  0.62560187     0.27800
H2770       H  0.43720091  0.30267530  0.70075318     0.27790
H2771       H  0.45275691  0.22715359  0.64825439     0.18380
H2772       H  0.54770861  0.27264843  0.70008619     0.18390
C2773       C  0.46705574  0.23441592  0.35991183    -0.07440
C2774       C  0.44070476  0.24728324  0.34372573    -0.18570
C2775       C  0.44257413  0.25929282  0.31165237     0.09760
C2776       C  0.47206707  0.26061958  0.29481342    -0.07370
C2777       C  0.49813346  0.24714216  0.31108899    -0.18600
C2778       C  0.49562535  0.23323535  0.34218710     0.09790
S2779       S  0.40625305  0.27262015  0.29400574    -0.33570
S2780       S  0.53110683  0.21699550  0.35955682    -0.33570
H2781       H  0.51488641  0.19765454  0.38287043     0.27800
H2782       H  0.41029141  0.25545531  0.26634155     0.27790
H2783       H  0.41879926  0.24982233  0.35688132     0.18380
H2784       H  0.52102967  0.24718923  0.29945617     0.18390
C2785       C  0.34469239  0.22931775  0.50204034    -0.07440
C2786       C  0.33513700  0.24334221  0.47270810    -0.18570
C2787       C  0.30595074  0.25945339  0.46975177     0.09760
C2788       C  0.28620566  0.26272826  0.49689045    -0.07370
C2789       C  0.29603075  0.24847151  0.52585813    -0.18600
C2790       C  0.32315850  0.23024049  0.52802745     0.09790
S2791       S  0.29542437  0.27791175  0.43181587    -0.33570
S2792       S  0.32980236  0.20913083  0.56561655    -0.33570
H2793       H  0.34922977  0.18635476  0.55278247     0.27800
H2794       H  0.31868936  0.26361158  0.41372616     0.27790
H2795       H  0.35126613  0.24328820  0.45266845     0.18380
H2796       H  0.28095306  0.24932820  0.54665446     0.18390
C2797       C  0.62453066  0.26774234  0.50524753    -0.07440
C2798       C  0.63778466  0.29779286  0.49532702    -0.18570
C2799       C  0.66993312  0.30750404  0.50006609     0.09760
C2800       C  0.69224731  0.28639654  0.51392546    -0.07370
C2801       C  0.67808411  0.25725147  0.52693913    -0.18600
C2802       C  0.64520565  0.24776677  0.52264764     0.09790
S2803       S  0.67902301  0.34848454  0.48950854    -0.33570
S2804       S  0.63136811  0.20990168  0.53963999    -0.33570
H2805       H  0.60452622  0.22222502  0.55403457     0.27800
H2806       H  0.66807866  0.34465978  0.45800219     0.27790
H2807       H  0.62255742  0.31494321  0.48390711     0.18380
H2808       H  0.69206911  0.24171128  0.54166793     0.18390
C2809       C  0.41847295  0.37995245  0.39136614    -0.07440
C2810       C  0.41437163  0.36677860  0.36117718    -0.18570
C2811       C  0.40487723  0.38650703  0.33561456     0.09760
C2812       C  0.40382468  0.41917164  0.34120460    -0.07370
C2813       C  0.39205490  0.42654531  0.37085576    -0.18600
C2814       C  0.40557005  0.41020223  0.39686034     0.09790
S2815       S  0.40517239  0.37199513  0.29584864    -0.33570
S2816       S  0.41426077  0.43244967  0.43242516    -0.33570
H2817       H  0.40014274  0.46094564  0.42272918     0.27800
H2818       H  0.39793553  0.40134347  0.28093403     0.27790
H2819       H  0.42139776  0.34282867  0.35693494     0.18380
H2820       H  0.38463219  0.45054734  0.37381300     0.18390
C2821       C  0.34846500  0.31906040  0.47873271    -0.07440
C2822       C  0.32279782  0.33361199  0.49186895    -0.18570
C2823       C  0.31729897  0.36389378  0.48008442     0.09760
C2824       C  0.32992916  0.37347906  0.45000221    -0.07370
C2825       C  0.34592743  0.35254885  0.43145592    -0.18600
C2826       C  0.35564006  0.32449951  0.44608144     0.09790
S2827       S  0.30267604  0.39189915  0.50737821    -0.33570
S2828       S  0.38418490  0.30166748  0.42579443    -0.33570
H2829       H  0.39328444  0.28360397  0.45297790     0.27800
H2830       H  0.33225636  0.40891839  0.50926814     0.27790
H2831       H  0.31613578  0.32756524  0.51640991     0.18380
H2832       H  0.35371220  0.35947155  0.40748875     0.18390
C2833       C  0.51859187  0.36264135  0.62997610    -0.07440
C2834       C  0.55150123  0.36508500  0.62387868    -0.18570
C2835       C  0.57097446  0.38647096  0.64036994     0.09760
C2836       C  0.55667520  0.40532368  0.66261856    -0.07370
C2837       C  0.52454605  0.40017210  0.67107824    -0.18600
C2838       C  0.50535849  0.37830907  0.65532408     0.09790
S2839       S  0.61258877  0.39136970  0.62973236    -0.33570
S2840       S  0.46333954  0.37563892  0.66461808    -0.33570
H2841       H  0.45994936  0.34282254  0.65979400     0.27800
H2842       H  0.62266463  0.40528283  0.65832234     0.27790
H2843       H  0.56137116  0.35261658  0.60425631     0.18380
H2844       H  0.51372954  0.41519721  0.68814477     0.18390
C2845       C  0.59469820  0.39415356  0.49711450    -0.07440
C2846       C  0.61562669  0.39083481  0.47143996    -0.18570
C2847       C  0.63452174  0.41642566  0.46015038     0.09760
C2848       C  0.62976142  0.44618810  0.47266619    -0.07370
C2849       C  0.60840217  0.44948826  0.49793335    -0.18600
C2850       C  0.59352661  0.42308779  0.51235250     0.09790
S2851       S  0.66569231  0.40911253  0.43208725    -0.33570
S2852       S  0.57494269  0.42746299  0.55069285    -0.33570
H2853       H  0.57830267  0.39554525  0.56087205     0.27800
H2854       H  0.67720941  0.44065994  0.42680774     0.27790
H2855       H  0.61688462  0.36848706  0.45963334     0.18380
H2856       H  0.60714530  0.47193345  0.50973812     0.18390
loop_ 
_geom_bond_atom_site_label_1 
_geom_bond_atom_site_label_2 
_geom_bond_distance 
_geom_bond_site_symmetry_2 
_ccdc_geom_bond_type 
N1            N2   1.314       .  A
N1            N7   1.302       .  A
N1          Mn30   2.140       .  S
N2            C9   1.340       .  A
N3            N5   1.312       .  A
N3            N4   1.309       .  A
N3          Mn19   2.163       .  S
N4           C10   1.343       .  A
N5            N6   1.312       .  A
N5          Mn30   2.108       .  S
N6           C10   1.328       .  A
N7            N8   1.311       .  A
N7          Mn19   2.127       .  S
N8            C9   1.346       .  A
C9         C2833   1.431       .  S
C10        C2821   1.426       .  S
N11          N17   1.308       .  A
N11          N12   1.325       .  A
N11         Mn41   2.202       .  S
N12          C20   1.361       .  A
N13          N14   1.307       .  A
N13          N15   1.306       .  A
N13         Mn19   2.135       .  S
N14          C21   1.350       .  A
N15          N16   1.304       .  A
N15         Mn41   2.107       .  S
N16          C21   1.341       .  A
N17          N18   1.303       .  A
N17         Mn19   2.119       .  S
N18          C20   1.333       .  A
Mn19        Cl43   2.538       .  S
C20        C2809   1.461       .  S
C21        C2845   1.433       .  S
N22          N23   1.301       .  A
N22          N28   1.316       .  A
N22         Mn30   2.138       .  S
N23          C31   1.328       .  A
N24          N26   1.309       .  A
N24          N25   1.353       .  A
N24         Mn42   2.380       .  S
N25          C32   1.393       .  A
N26          N27   1.284       .  A
N26         Mn30   2.005       .  S
N27          C32   1.305       .  A
N28          N29   1.344       .  A
N28         Mn42   2.316       .  S
N29          C31   1.379       .  A
Mn30        Cl43   2.497       .  S
C31        C2785   1.502       .  S
C32        C2761   1.496       .  S
N33          N34   1.312       .  A
N33          N39   1.317       .  A
N33         Mn41   2.184       .  S
N34          C44   1.343       .  A
N35          N36   1.346       .  A
N35          N37   1.315       .  A
N35         Mn42   2.370       .  S
N36          C45   1.385       .  A
N37          N38   1.304       .  A
N37         Mn41   2.074       .  S
N38          C45   1.324       .  A
N39          N40   1.345       .  A
N39         Mn42   2.315       .  S
N40          C44   1.379       .  A
Mn41        Cl43   2.493       .  S
Mn42        Cl43   2.543       .  S
C44        C2797   1.532       .  S
C45        C2773   1.497       .  S
N46          N47   1.319       .  A
N46          N52   1.312       .  A
N46         Mn75   2.184       .  S
N47          C54   1.357       .  A
N48          N50   1.309       .  A
N48          N49   1.323       .  A
N48         Mn64   2.171       .  S
N49          C55   1.345       .  A
N50          N51   1.317       .  A
N50         Mn75   2.184       .  S
N51          C55   1.347       .  A
N52          N53   1.316       .  A
N52         Mn64   2.156       .  S
N53          C54   1.343       .  A
C54        C2812   1.479       .  S
C55        C2752   1.468       .  S
N56          N62   1.324       .  A
N56          N57   1.339       .  A
N56         Mn86   2.309       .  S
N57          C65   1.375       .  A
N58          N59   1.304       .  A
N58          N60   1.310       .  A
N58         Mn64   2.082       .  S
N59          C66   1.320       .  A
N60          N61   1.351       .  A
N60         Mn86   2.374       .  S
N61          C66   1.389       .  A
N62          N63   1.310       .  A
N62         Mn64   2.186       .  S
N63          C65   1.335       .  A
Mn64        Cl88   2.465       .  S
C65        C2677   1.508       .  S
C66        C2701   1.512       .  S
N67          N68   1.313       .  A
N67          N73   1.308       .  A
N67         Mn75   2.166       .  S
N68          C76   1.352       .  A
N69          N71   1.310       .  A
N69          N70   1.306       .  A
N69         Mn87   2.124       .  S
N70          C77   1.331       .  A
N71          N72   1.317       .  A
N71         Mn75   2.184       .  S
N72          C77   1.354       .  A
N73          N74   1.313       .  A
N73         Mn87   2.154       .  S
N74          C76   1.352       .  A
Mn75        Cl88   2.534       .  S
C76        C2737   1.465       .  S
C77        C2725   1.444       .  S
N78          N79   1.339       .  A
N78          N84   1.323       .  A
N78         Mn86   2.271       .  S
N79          C89   1.374       .  A
N80          N81   1.311       .  A
N80          N82   1.304       .  A
N80         Mn87   2.163       .  S
N81          C90   1.335       .  A
N82          N83   1.347       .  A
N82         Mn86   2.337       .  S
N83          C90   1.381       .  A
N84          N85   1.325       .  A
N84         Mn87   2.289       .  S
N85          C89   1.350       .  A
Mn86        Cl88   2.570       .  S
Mn87        Cl88   2.447       .  S
C89        C2689   1.533       .  S
C90        C2716   1.531       .  S
N91          N92   1.315       .  A
N91          N97   1.316       .  A
N91        Mn120   2.160       .  S
N92          C99   1.341       .  A
N93          N95   1.313       .  A
N93          N94   1.315       .  A
N93        Mn109   2.157       .  S
N94         C100   1.347       .  A
N95          N96   1.311       .  A
N95        Mn120   2.144       .  S
N96         C100   1.336       .  A
N97          N98   1.314       .  A
N97        Mn109   2.168       .  S
N98          C99   1.346       .  A
C99        C2641   1.455       .  S
C100       C2656   1.446       .  S
N101        N107   1.306       .  A
N101        N102   1.295       .  A
N101       Mn131   2.120       .  S
N102        C110   1.326       .  A
N103        N104   1.321       .  A
N103        N105   1.314       .  A
N103       Mn109   2.189       .  S
N104        C111   1.351       .  A
N105        N106   1.305       .  A
N105       Mn131   2.132       .  S
N106        C111   1.333       .  A
N107        N108   1.328       .  A
N107       Mn109   2.174       .  S
N108        C110   1.362       .  A
Mn109      Cl133   2.550       .  S
C110       C2665   1.449       .  S
C111       C2740   1.462       .  S
N112        N113   1.311       .  A
N112        N118   1.317       .  A
N112       Mn120   2.145       .  S
N113        C121   1.333       .  A
N114        N116   1.316       .  A
N114        N115   1.342       .  A
N114       Mn132   2.318       .  S
N115        C122   1.375       .  A
N116        N117   1.308       .  A
N116       Mn120   2.127       .  S
N117        C122   1.335       .  A
N118        N119   1.346       .  A
N118       Mn132   2.349       .  S
N119        C121   1.382       .  A
Mn120      Cl133   2.516       .  S
C121       C2605   1.519       .  S
C122       C2617   1.500       .  S
N123        N124   1.305       .  A
N123        N129   1.310       .  A
N123       Mn131   2.067       .  S
N124        C134   1.326       .  A
N125        N126   1.352       .  A
N125        N127   1.310       .  A
N125       Mn132   2.353       .  S
N126        C135   1.388       .  A
N127        N128   1.304       .  A
N127       Mn131   2.114       .  S
N128        C135   1.327       .  A
N129        N130   1.344       .  A
N129       Mn132   2.345       .  S
N130        C134   1.382       .  A
Mn131      Cl133   2.460       .  S
Mn132      Cl133   2.524       .  S
C134       C2629   1.493       .  S
C135       C2593   1.528       .  S
N136        N137   1.321       .  A
N136        N142   1.309       .  A
N136       Mn165   2.165       .  S
N137        C144   1.344       .  A
N138        N140   1.313       .  A
N138        N139   1.311       .  A
N138       Mn154   2.133       .  S
N139        C145   1.348       .  A
N140        N141   1.316       .  A
N140       Mn165   2.199       .  S
N141        C145   1.353       .  A
N142        N143   1.319       .  A
N142       Mn154   2.191       .  S
N143        C144   1.350       .  A
C144       C2749   1.464       .  S
C145       C2668   1.457       .  S
N146        N152   1.303       .  A
N146        N147   1.295       .  A
N146       Mn176   2.082       .  S
N147        C155   1.323       .  A
N148        N149   1.310       .  A
N148        N150   1.308       .  A
N148       Mn154   2.141       .  S
N149        C156   1.348       .  A
N150        N151   1.304       .  A
N150       Mn176   2.121       .  S
N151        C156   1.345       .  A
N152        N153   1.330       .  A
N152       Mn154   2.212       .  S
N153        C155   1.367       .  A
Mn154      Cl178   2.522       .  S
C155       C2581   1.461       .  S
C156       C2848   1.412       .  S
N157        N158   1.298       .  A
N157        N163   1.306       .  A
N157       Mn165   2.079       .  S
N158        C166   1.324       .  A
N159        N161   1.318       .  A
N159        N160   1.348       .  A
N159       Mn177   2.371       .  S
N160        C167   1.382       .  A
N161        N162   1.300       .  A
N161       Mn165   2.092       .  S
N162        C167   1.330       .  A
N163        N164   1.353       .  A
N163       Mn177   2.380       .  S
N164        C166   1.390       .  A
Mn165      Cl178   2.544       .  S
C166       C2533   1.527       .  S
C167       C2569   1.512       .  S
N168        N169   1.307       .  A
N168        N174   1.308       .  A
N168       Mn176   2.080       .  S
N169        C179   1.329       .  A
N170        N171   1.344       .  A
N170        N172   1.317       .  A
N170       Mn177   2.327       .  S
N171        C180   1.379       .  A
N172        N173   1.316       .  A
N172       Mn176   2.185       .  S
N173        C180   1.341       .  A
N174        N175   1.345       .  A
N174       Mn177   2.340       .  S
N175        C179   1.383       .  A
Mn176      Cl178   2.497       .  S
Mn177      Cl178   2.476       .  S
C179       C2557   1.503       .  S
C180       C2548   1.525       .  S
N181        N182   1.311       .  A
N181        N187   1.307       .  A
N181       Mn210   2.136       .  S
N182        C189   1.342       .  A
N183        N185   1.314       .  A
N183        N184   1.313       .  A
N183       Mn199   2.174       .  S
N184        C190   1.351       .  A
N185        N186   1.316       .  A
N185       Mn210   2.195       .  S
N186        C190   1.357       .  A
N187        N188   1.313       .  A
N187       Mn199   2.157       .  S
N188        C189   1.351       .  A
C189       C2836   1.430       .  S
C190       C2584   1.468       .  S
N191        N197   1.308       .  A
N191        N192   1.311       .  A
N191       Mn221   2.152       .  S
N192        C200   1.344       .  A
N193        N194   1.323       .  A
N193        N195   1.315       .  A
N193       Mn199   2.206       .  S
N194        C201   1.356       .  A
N195        N196   1.313       .  A
N195       Mn221   2.173       .  S
N196        C201   1.347       .  A
N197        N198   1.320       .  A
N197       Mn199   2.156       .  S
N198        C200   1.348       .  A
Mn199      Cl223   2.516       .  S
C200       C2653   1.469       .  S
C201       C2521   1.473       .  S
N202        N203   1.298       .  A
N202        N208   1.303       .  A
N202       Mn210   2.077       .  S
N203        C211   1.325       .  A
N204        N206   1.316       .  A
N204        N205   1.352       .  A
N204       Mn222   2.389       .  S
N205        C212   1.386       .  A
N206        N207   1.303       .  A
N206       Mn210   2.103       .  S
N207        C212   1.335       .  A
N208        N209   1.354       .  A
N208       Mn222   2.380       .  S
N209        C211   1.391       .  A
Mn210      Cl223   2.570       .  S
C211       C2488   1.533       .  S
C212       C2509   1.539       .  S
N213        N214   1.316       .  A
N213        N219   1.315       .  A
N213       Mn221   2.147       .  S
N214        C224   1.343       .  A
N215        N216   1.344       .  A
N215        N217   1.316       .  A
N215       Mn222   2.324       .  S
N216        C225   1.379       .  A
N217        N218   1.310       .  A
N217       Mn221   2.161       .  S
N218        C225   1.336       .  A
N219        N220   1.338       .  A
N219       Mn222   2.315       .  S
N220        C224   1.372       .  A
Mn221      Cl223   2.538       .  S
Mn222      Cl223   2.450       .  S
C224       C2497   1.501       .  S
C225       C2473   1.514       .  S
N226        N227   1.313       .  A
N226        N232   1.306       .  A
N226       Mn255   2.165       .  S
N227        C234   1.353       .  A
N228        N230   1.313       .  A
N228        N229   1.307       .  A
N228       Mn244   2.158       .  S
N229        C235   1.340       .  A
N230        N231   1.308       .  A
N230       Mn255   2.148       .  S
N231        C235   1.345       .  A
N232        N233   1.304       .  A
N232       Mn244   2.085       .  S
N233        C234   1.332       .  A
C234       C2824   1.414       .  S
C235       C2728   1.433       .  S
N236        N242   1.299       .  A
N236        N237   1.352       .  A
N236       Mn266   2.357       .  S
N237        C245   1.389       .  A
N238        N239   1.303       .  A
N238        N240   1.314       .  A
N238       Mn244   2.067       .  S
N239        C246   1.329       .  A
N240        N241   1.351       .  A
N240       Mn266   2.404       .  S
N241        C246   1.390       .  A
N242        N243   1.299       .  A
N242       Mn244   2.117       .  S
N243        C245   1.322       .  A
Mn244      Cl268   2.563       .  S
C245       C2437   1.538       .  S
C246       C2464   1.522       .  S
N247        N248   1.319       .  A
N247        N253   1.308       .  A
N247       Mn255   2.155       .  S
N248        C256   1.346       .  A
N249        N251   1.313       .  A
N249        N250   1.314       .  A
N249       Mn267   2.186       .  S
N250        C257   1.352       .  A
N251        N252   1.321       .  A
N251       Mn255   2.189       .  S
N252        C257   1.355       .  A
N253        N254   1.315       .  A
N253       Mn267   2.161       .  S
N254        C256   1.348       .  A
Mn255      Cl268   2.515       .  S
C256       C2644   1.469       .  S
C257       C2524   1.474       .  S
N258        N259   1.340       .  A
N258        N264   1.316       .  A
N258       Mn266   2.320       .  S
N259        C269   1.376       .  A
N260        N261   1.313       .  A
N260        N262   1.316       .  A
N260       Mn267   2.166       .  S
N261        C270   1.340       .  A
N262        N263   1.339       .  A
N262       Mn266   2.295       .  S
N263        C270   1.372       .  A
N264        N265   1.311       .  A
N264       Mn267   2.141       .  S
N265        C269   1.339       .  A
Mn266      Cl268   2.459       .  S
Mn267      Cl268   2.521       .  S
C269       C2428   1.506       .  S
C270       C2452   1.501       .  S
N271        N272   1.314       .  A
N271        N277   1.310       .  A
N271       Mn300   2.166       .  S
N272        C279   1.344       .  A
N273        N275   1.310       .  A
N273        N274   1.330       .  A
N273       Mn289   2.225       .  S
N274        C280   1.358       .  A
N275        N276   1.309       .  A
N275       Mn300   2.130   1_554  S
N276        C280   1.341       .  A
N277        N278   1.324       .  A
N277       Mn289   2.186   1_556  S
N278        C279   1.354       .  A
C279       C2380   1.474       .  S
C280       C2404   1.486       .  S
N281        N287   1.309       .  A
N281        N282   1.322       .  A
N281       Mn311   2.157       .  S
N282        C290   1.345       .  A
N283        N284   1.321       .  A
N283        N285   1.310       .  A
N283       Mn289   2.204       .  S
N284        C291   1.355       .  A
N285        N286   1.309       .  A
N285       Mn311   2.129       .  S
N286        C291   1.334       .  A
N287        N288   1.310       .  A
N287       Mn289   2.167       .  S
N288        C290   1.347       .  A
Mn289      Cl313   2.571       .  S
C290       C2389   1.468       .  S
C291       C2413   1.445       .  S
N292        N293   1.315       .  A
N292        N298   1.318   1_556  A
N292       Mn300   2.179       .  S
N293        C301   1.340   1_556  A
N294        N296   1.313       .  A
N294        N295   1.354       .  A
N294       Mn312   2.382   1_556  S
N295        C302   1.392       .  A
N296        N297   1.301       .  A
N296       Mn300   2.094       .  S
N297        C302   1.325       .  A
N298        N299   1.336       .  A
N298       Mn312   2.291       .  S
N299        C301   1.370       .  A
Mn300      Cl313   2.480   1_556  S
C301       C2329   1.495       .  S
C302       C2365   1.528       .  S
N303        N304   1.305       .  A
N303        N309   1.320       .  A
N303       Mn311   2.174       .  S
N304        C314   1.337       .  A
N305        N306   1.348       .  A
N305        N307   1.312       .  A
N305       Mn312   2.363       .  S
N306        C315   1.387       .  A
N307        N308   1.297       .  A
N307       Mn311   2.054       .  S
N308        C315   1.316       .  A
N309        N310   1.342       .  A
N309       Mn312   2.305       .  S
N310        C314   1.377       .  A
Mn311      Cl313   2.487       .  S
Mn312      Cl313   2.581       .  S
C314       C2341   1.517       .  S
C315       C2356   1.492       .  S
N316        N317   1.319       .  A
N316        N322   1.311       .  A
N316       Mn345   2.193   1_655  S
N317        C324   1.355       .  A
N318        N320   1.309   1_655  A
N318        N319   1.304       .  A
N318       Mn334   2.112       .  S
N319        C325   1.331   1_655  A
N320        N321   1.322       .  A
N320       Mn345   2.201       .  S
N321        C325   1.359       .  A
N322        N323   1.312       .  A
N322       Mn334   2.150       .  S
N323        C324   1.346       .  A
C324       C2377   1.467       .  S
C325       C2305   1.455       .  S
N326        N332   1.320       .  A
N326        N327   1.337   1_655  A
N326       Mn356   2.296   1_655  S
N327        C335   1.372   1_455  A
N328        N329   1.307       .  A
N328        N330   1.313       .  A
N328       Mn334   2.088       .  S
N329        C336   1.326       .  A
N330        N331   1.347       .  A
N330       Mn356   2.366   1_655  S
N331        C336   1.386       .  A
N332        N333   1.315       .  A
N332       Mn334   2.192       .  S
N333        C335   1.343       .  A
Mn334      Cl358   2.512   1_655  S
C335       C2257   1.508       .  S
C336       C2281   1.507       .  S
N337        N338   1.326       .  A
N337        N343   1.311       .  A
N337       Mn345   2.205       .  S
N338        C346   1.359       .  A
N339        N341   1.310       .  A
N339        N340   1.309       .  A
N339       Mn357   2.118       .  S
N340        C347   1.332       .  A
N341        N342   1.322       .  A
N341       Mn345   2.207       .  S
N342        C347   1.355       .  A
N343        N344   1.304       .  A
N343       Mn357   2.129       .  S
N344        C346   1.332       .  A
Mn345      Cl358   2.540       .  S
C346       C2293   1.457       .  S
C347       C2317   1.447       .  S
N348        N349   1.346       .  A
N348        N354   1.317       .  A
N348       Mn356   2.337       .  S
N349        C359   1.381       .  A
N350        N351   1.305       .  A
N350        N352   1.312       .  A
N350       Mn357   2.067       .  S
N351        C360   1.320       .  A
N352        N353   1.354       .  A
N352       Mn356   2.400       .  S
N353        C360   1.393       .  A
N354        N355   1.303       .  A
N354       Mn357   2.131       .  S
N355        C359   1.331       .  A
Mn356      Cl358   2.549       .  S
Mn357      Cl358   2.524       .  S
C359       C2269   1.515       .  S
C360       C2248   1.520       .  S
N361        N362   1.350       .  A
N361        N367   1.311       .  A
N361       Mn390   2.353   1_556  S
N362        C369   1.386       .  A
N363        N365   1.313       .  A
N363        N364   1.296       .  A
N363       Mn379   2.089       .  S
N364        C370   1.331       .  A
N365        N366   1.347   1_556  A
N365       Mn390   2.335   1_556  S
N366        C370   1.383   1_554  A
N367        N368   1.309       .  A
N367       Mn379   2.128       .  S
N368        C369   1.332       .  A
C369       C2161   1.526       .  S
C370       C2185   1.511   1_556  S
N371        N377   1.304       .  A
N371        N372   1.313       .  A
N371       Mn401   2.148   1_556  S
N372        C380   1.349       .  A
N373        N374   1.304       .  A
N373        N375   1.315       .  A
N373       Mn379   2.140       .  S
N374        C381   1.334       .  A
N375        N376   1.328       .  A
N375       Mn401   2.199   1_556  S
N376        C381   1.355       .  A
N377        N378   1.308       .  A
N377       Mn379   2.128       .  S
N378        C380   1.346       .  A
Mn379      Cl403   2.500   1_556  S
C380       C2236   1.458       .  S
C381       C2296   1.476       .  S
N382        N383   1.349       .  A
N382        N388   1.313       .  A
N382       Mn390   2.373       .  S
N383        C391   1.385       .  A
N384        N386   1.316       .  A
N384        N385   1.304       .  A
N384       Mn402   2.139       .  S
N385        C392   1.334   1_554  A
N386        N387   1.353   1_554  A
N386       Mn390   2.365       .  S
N387        C392   1.386       .  A
N388        N389   1.309       .  A
N388       Mn402   2.096       .  S
N389        C391   1.330       .  A
Mn390      Cl403   2.509       .  S
C391       C2173   1.520       .  S
C392       C2197   1.544       .  S
N393        N394   1.314   1_554  A
N393        N399   1.308       .  A
N393       Mn401   2.128       .  S
N394        C404   1.341       .  A
N395        N396   1.308       .  A
N395        N397   1.314       .  A
N395       Mn402   2.157       .  S
N396        C405   1.339       .  A
N397        N398   1.320       .  A
N397       Mn401   2.178       .  S
N398        C405   1.352       .  A
N399        N400   1.306       .  A
N399       Mn402   2.136       .  S
N400        C404   1.337   1_554  A
Mn401      Cl403   2.530       .  S
Mn402      Cl403   2.533       .  S
C404       C2224   1.422       .  S
C405       C2209   1.460       .  S
N406        N407   1.315       .  A
N406        N412   1.311       .  A
N406       Mn435   2.139   1_655  S
N407        C414   1.342       .  A
N408        N410   1.303   1_655  A
N408        N409   1.301       .  A
N408       Mn424   2.108       .  S
N409        C415   1.340   1_655  A
N410        N411   1.315       .  A
N410       Mn435   2.147       .  S
N411        C415   1.354       .  A
N412        N413   1.314       .  A
N412       Mn424   2.172       .  S
N413        C414   1.347       .  A
C414       C2392   1.465       .  S
C415       C2149   1.436   1_455  S
N416        N422   1.317       .  A
N416        N417   1.342   1_655  A
N416       Mn446   2.335   1_655  S
N417        C425   1.379   1_455  A
N418        N419   1.306       .  A
N418        N420   1.311       .  A
N418       Mn424   2.099       .  S
N419        C426   1.329       .  A
N420        N421   1.349       .  A
N420       Mn446   2.360   1_655  S
N421        C426   1.388       .  A
N422        N423   1.316       .  A
N422       Mn424   2.161       .  S
N423        C425   1.340       .  A
Mn424      Cl448   2.470   1_655  S
C425       C2116   1.512       .  S
C426       C2089   1.519       .  S
N427        N428   1.319       .  A
N427        N433   1.312       .  A
N427       Mn435   2.146       .  S
N428        C436   1.347       .  A
N429        N431   1.305       .  A
N429        N430   1.314       .  A
N429       Mn447   2.127       .  S
N430        C437   1.341       .  A
N431        N432   1.314       .  A
N431       Mn435   2.171       .  S
N432        C437   1.353       .  A
N433        N434   1.318       .  A
N433       Mn447   2.194       .  S
N434        C436   1.346       .  A
Mn435      Cl448   2.549       .  S
C436       C2212   1.473       .  S
C437       C2137   1.444       .  S
N438        N439   1.354   1_455  A
N438        N444   1.317       .  A
N438       Mn446   2.399       .  S
N439        C449   1.389   1_655  A
N440        N441   1.292       .  A
N440        N442   1.309       .  A
N440       Mn447   2.028       .  S
N441        C450   1.313       .  A
N442        N443   1.360       .  A
N442       Mn446   2.410       .  S
N443        C450   1.396       .  A
N444        N445   1.306       .  A
N444       Mn447   2.122       .  S
N445        C449   1.328       .  A
Mn446      Cl448   2.523       .  S
Mn447      Cl448   2.518       .  S
C449       C2125   1.538   1_455  S
C450       C2104   1.527       .  S
N451        N452   1.345   1_556  A
N451        N457   1.316       .  A
N451       Mn480   2.342       .  S
N452        C459   1.381   1_554  A
N453        N455   1.308       .  A
N453        N454   1.294       .  A
N453       Mn469   2.052       .  S
N454        C460   1.317       .  A
N455        N456   1.345   1_655  A
N455       Mn480   2.323       .  S
N456        C460   1.383   1_455  A
N457        N458   1.302       .  A
N457       Mn469   2.115       .  S
N458        C459   1.331       .  A
C459       C2044   1.508   1_556  S
C460       C2056   1.482   1_655  S
N461        N467   1.307       .  A
N461        N462   1.321       .  A
N461       Mn491   2.192       .  S
N462        C470   1.359       .  A
N463        N464   1.299       .  A
N463        N465   1.307       .  A
N463       Mn469   2.098       .  S
N464        C471   1.329       .  A
N465        N466   1.326       .  A
N465       Mn491   2.205   1_655  S
N466        C471   1.364       .  A
N467        N468   1.312       .  A
N467       Mn469   2.151   1_455  S
N468        C470   1.351       .  A
Mn469      Cl493   2.483   1_655  S
C470       C2308   1.476       .  S
C471       C2401   1.452   1_556  S
N472        N473   1.353       .  A
N472        N478   1.305   1_556  A
N472       Mn480   2.373   1_455  S
N473        C481   1.390       .  A
N474        N476   1.311   1_455  A
N474        N475   1.302       .  A
N474       Mn492   2.062       .  S
N475        C482   1.328   1_455  A
N476        N477   1.353       .  A
N476       Mn480   2.405   1_554  S
N477        C482   1.391       .  A
N478        N479   1.304       .  A
N478       Mn492   2.102       .  S
N479        C481   1.329   1_554  A
Mn480      Cl493   2.492   1_655  S
C481       C2065   1.536       .  S
C482       C2077   1.528       .  S
N483        N484   1.324       .  A
N483        N489   1.309       .  A
N483       Mn491   2.181   1_554  S
N484        C494   1.358       .  A
N485        N486   1.302       .  A
N485        N487   1.309       .  A
N485       Mn492   2.107   1_556  S
N486        C495   1.338       .  A
N487        N488   1.315       .  A
N487       Mn491   2.171       .  S
N488        C495   1.358       .  A
N489        N490   1.297       .  A
N489       Mn492   2.098       .  S
N490        C494   1.326       .  A
Mn491      Cl493   2.549       .  S
Mn492      Cl493   2.505   1_554  S
C494       C2140   1.426       .  S
C495       C2221   1.448       .  S
N496        N497   1.300       .  A
N496        N502   1.312       .  A
N496       Mn525   2.085       .  S
N497        C504   1.330       .  A
N498        N500   1.310       .  A
N498        N499   1.324       .  A
N498       Mn514   2.221       .  S
N499        C505   1.357       .  A
N500        N501   1.299       .  A
N500       Mn525   2.092       .  S
N501        C505   1.334       .  A
N502        N503   1.321       .  A
N502       Mn514   2.226       .  S
N503        C504   1.355       .  A
C504       C2416   1.446   1_556  S
C505       C2320   1.443       .  S
N506        N512   1.311   1_455  A
N506        N507   1.354       .  A
N506       Mn536   2.387       .  S
N507        C515   1.391       .  A
N508        N509   1.298       .  A
N508        N510   1.309       .  A
N508       Mn514   2.105       .  S
N509        C516   1.329   1_556  A
N510        N511   1.352   1_556  A
N510       Mn536   2.383   1_655  S
N511        C516   1.389       .  A
N512        N513   1.292       .  A
N512       Mn514   2.092       .  S
N513        C515   1.322   1_655  A
Mn514      Cl538   2.552       .  S
C515       C2020   1.531       .  S
C516       C1996   1.536       .  S
N517        N518   1.317       .  A
N517        N523   1.308       .  A
N517       Mn525   2.157   1_455  S
N518        C526   1.353       .  A
N519        N521   1.306       .  A
N519        N520   1.303       .  A
N519       Mn537   2.127   1_655  S
N520        C527   1.344       .  A
N521        N522   1.319       .  A
N521       Mn525   2.154   1_554  S
N522        C527   1.348       .  A
N523        N524   1.307       .  A
N523       Mn537   2.150   1_556  S
N524        C526   1.346       .  A
Mn525      Cl538   2.555       .  S
C526       C2233   1.439       .  S
C527       C2152   1.442       .  S
N528        N529   1.336   1_455  A
N528        N534   1.313       .  A
N528       Mn536   2.291   1_554  S
N529        C539   1.373       .  A
N530        N531   1.313   1_556  A
N530        N532   1.313       .  A
N530       Mn537   2.128   1_556  S
N531        C540   1.336   1_554  A
N532        N533   1.343       .  A
N532       Mn536   2.335       .  S
N533        C540   1.381       .  A
N534        N535   1.316       .  A
N534       Mn537   2.169       .  S
N535        C539   1.345   1_455  A
Mn536      Cl538   2.482   1_455  S
Mn537      Cl538   2.493   1_454  S
C539       C2032   1.504       .  S
C540       C2008   1.511   1_556  S
N541        N542   1.337       .  A
N541        N547   1.319       .  A
N541       Mn570   2.305       .  S
N542        C549   1.375       .  A
N543        N545   1.307       .  A
N543        N544   1.296       .  A
N543       Mn559   2.031       .  S
N544        C550   1.315       .  A
N545        N546   1.347       .  A
N545       Mn570   2.348       .  S
N546        C550   1.387       .  A
N547        N548   1.314       .  A
N547       Mn559   2.178       .  S
N548        C549   1.339       .  A
C549       C1909   1.502       .  S
C550       C1924   1.489       .  S
N551        N557   1.301       .  A
N551        N552   1.311       .  A
N551       Mn581   2.136       .  S
N552        C560   1.347       .  A
N553        N554   1.307       .  A
N553        N555   1.308       .  A
N553       Mn559   2.114       .  S
N554        C561   1.333       .  A
N555        N556   1.323       .  A
N555       Mn581   2.208       .  S
N556        C561   1.357       .  A
N557        N558   1.305       .  A
N557       Mn559   2.129       .  S
N558        C560   1.347       .  A
Mn559      Cl583   2.481       .  S
C560       C1960   1.457       .  S
C561       C1984   1.456       .  S
N562        N563   1.341   1_556  A
N562        N568   1.323       .  A
N562       Mn570   2.310   1_556  S
N563        C571   1.372   1_554  A
N564        N566   1.317       .  A
N564        N565   1.304       .  A
N564       Mn582   2.088       .  S
N565        C572   1.326       .  A
N566        N567   1.346       .  A
N566       Mn570   2.369   1_556  S
N567        C572   1.384       .  A
N568        N569   1.319       .  A
N568       Mn582   2.220       .  S
N569        C571   1.342       .  A
Mn570      Cl583   2.546       .  S
C571       C1900   1.520       .  S
C572       C1933   1.499       .  S
N573        N574   1.311       .  A
N573        N579   1.309       .  A
N573       Mn581   2.127   1_556  S
N574        C584   1.340       .  A
N575        N576   1.313       .  A
N575        N577   1.310       .  A
N575       Mn582   2.163       .  S
N576        C585   1.342   1_556  A
N577        N578   1.319   1_556  A
N577       Mn581   2.137   1_556  S
N578        C585   1.344       .  A
N579        N580   1.327       .  A
N579       Mn582   2.231       .  S
N580        C584   1.362       .  A
Mn581      Cl583   2.543       .  S
Mn582      Cl583   2.492   1_556  S
C584       C1945   1.478       .  S
C585       C1969   1.468       .  S
N586        N587   1.308       .  A
N586        N592   1.314   1_565  A
N586       Mn615   2.146       .  S
N587        C594   1.341       .  A
N588        N590   1.304       .  A
N588        N589   1.328       .  A
N588       Mn604   2.195       .  S
N589        C595   1.360       .  A
N590        N591   1.299       .  A
N590       Mn615   2.099   1_545  S
N591        C595   1.331       .  A
N592        N593   1.327       .  A
N592       Mn604   2.225       .  S
N593        C594   1.362   1_545  A
C594       C1948   1.470       .  S
C595       C1873   1.463       .  S
N596        N602   1.317       .  A
N596        N597   1.308       .  A
N596       Mn626   2.179       .  S
N597        C605   1.341       .  A
N598        N599   1.315       .  A
N598        N600   1.308       .  A
N598       Mn604   2.164       .  S
N599        C606   1.350       .  A
N600        N601   1.316       .  A
N600       Mn626   2.153       .  S
N601        C606   1.342       .  A
N602        N603   1.315       .  A
N602       Mn604   2.168       .  S
N603        C605   1.349       .  A
Mn604      Cl628   2.530       .  S
C605       C1861   1.447       .  S
C606       C1885   1.444       .  S
N607        N608   1.318       .  A
N607        N613   1.317       .  A
N607       Mn615   2.199   1_545  S
N608        C616   1.346       .  A
N609        N611   1.310       .  A
N609        N610   1.346       .  A
N609       Mn627   2.337   1_565  S
N610        C617   1.383       .  A
N611        N612   1.306       .  A
N611       Mn615   2.103       .  S
N612        C617   1.332       .  A
N613        N614   1.339       .  A
N613       Mn627   2.299       .  S
N614        C616   1.374       .  A
Mn615      Cl628   2.509   1_565  S
C616       C1825   1.520       .  S
C617       C1852   1.509       .  S
N618        N619   1.294       .  A
N618        N624   1.314       .  A
N618       Mn626   2.041       .  S
N619        C629   1.323       .  A
N620        N621   1.355       .  A
N620        N622   1.295       .  A
N620       Mn627   2.389       .  S
N621        C630   1.396       .  A
N622        N623   1.298       .  A
N622       Mn626   2.132       .  S
N623        C630   1.327       .  A
N624        N625   1.348       .  A
N624       Mn627   2.394       .  S
N625        C629   1.387       .  A
Mn626      Cl628   2.560       .  S
Mn627      Cl628   2.464       .  S
C629       C1813   1.505       .  S
C630       C1837   1.551       .  S
N631        N632   1.326       .  A
N631        N637   1.304       .  A
N631       Mn660   2.166   1_556  S
N632        C639   1.357       .  A
N633        N635   1.310       .  A
N633        N634   1.301       .  A
N633       Mn649   2.139   1_554  S
N634        C640   1.341       .  A
N635        N636   1.320       .  A
N635       Mn660   2.176       .  S
N636        C640   1.355       .  A
N637        N638   1.294       .  A
N637       Mn649   2.114       .  S
N638        C639   1.328       .  A
C639       C1864   1.453       .  S
C640       C1804   1.464       .  S
N641        N647   1.310   1_554  A
N641        N642   1.348       .  A
N641       Mn671   2.365   1_554  S
N642        C650   1.388       .  A
N643        N644   1.316       .  A
N643        N645   1.316       .  A
N643       Mn649   2.180       .  S
N644        C651   1.338       .  A
N645        N646   1.343       .  A
N645       Mn671   2.316       .  S
N646        C651   1.378       .  A
N647        N648   1.306   1_556  A
N647       Mn649   2.087       .  S
N648        C650   1.330       .  A
Mn649      Cl673   2.458   1_556  S
C650       C1729   1.517       .  S
C651       C1753   1.518       .  S
N652        N653   1.319       .  A
N652        N658   1.311       .  A
N652       Mn660   2.191       .  S
N653        C661   1.352       .  A
N654        N656   1.310   1_554  A
N654        N655   1.317   1_554  A
N654       Mn672   2.148       .  S
N655        C662   1.345       .  A
N656        N657   1.317       .  A
N656       Mn660   2.169   1_556  S
N657        C662   1.353       .  A
N658        N659   1.317       .  A
N658       Mn672   2.155       .  S
N659        C661   1.339       .  A
Mn660      Cl673   2.551       .  S
C661       C1777   1.460       .  S
C662       C1792   1.476       .  S
N663        N664   1.353       .  A
N663        N669   1.309   1_556  A
N663       Mn671   2.370       .  S
N664        C674   1.390       .  A
N665        N666   1.296       .  A
N665        N667   1.317       .  A
N665       Mn672   2.083       .  S
N666        C675   1.325       .  A
N667        N668   1.348       .  A
N667       Mn671   2.365   1_554  S
N668        C675   1.385       .  A
N669        N670   1.296       .  A
N669       Mn672   2.063       .  S
N670        C674   1.321   1_554  A
Mn671      Cl673   2.532   1_556  S
Mn672      Cl673   2.518       .  S
C674       C1741   1.518       .  S
C675       C1765   1.510       .  S
N676        N677   1.318       .  A
N676        N682   1.307       .  A
N676       Mn705   2.156   1_565  S
N677        C684   1.344       .  A
N678        N680   1.308       .  A
N678        N679   1.306       .  A
N678       Mn694   2.164   1_545  S
N679        C685   1.352       .  A
N680        N681   1.315       .  A
N680       Mn705   2.137       .  S
N681        C685   1.351       .  A
N682        N683   1.303       .  A
N682       Mn694   2.109       .  S
N683        C684   1.342       .  A
C684       C1957   1.452       .  S
C685       C1708   1.459       .  S
N686        N692   1.311       .  A
N686        N687   1.344       .  A
N686       Mn716   2.346       .  S
N687        C695   1.383       .  A
N688        N689   1.321       .  A
N688        N690   1.315       .  A
N688       Mn694   2.188       .  S
N689        C696   1.347       .  A
N690        N691   1.342       .  A
N690       Mn716   2.330   1_565  S
N691        C696   1.378       .  A
N692        N693   1.311       .  A
N692       Mn694   2.108   1_545  S
N693        C695   1.333       .  A
Mn694      Cl718   2.516   1_565  S
C695       C1681   1.508       .  S
C696       C1672   1.525       .  S
N697        N698   1.307       .  A
N697        N703   1.310       .  A
N697       Mn705   2.131       .  S
N698        C706   1.342       .  A
N699        N701   1.312       .  A
N699        N700   1.326       .  A
N699       Mn717   2.207       .  S
N700        C707   1.355       .  A
N701        N702   1.301       .  A
N701       Mn705   2.108       .  S
N702        C707   1.330       .  A
N703        N704   1.325       .  A
N703       Mn717   2.214       .  S
N704        C706   1.355       .  A
Mn705      Cl718   2.539       .  S
C706       C1780   1.455       .  S
C707       C1720   1.438   1_545  S
N708        N709   1.348   1_545  A
N708        N714   1.317       .  A
N708       Mn716   2.386       .  S
N709        C719   1.384       .  A
N710        N711   1.305       .  A
N710        N712   1.319       .  A
N710       Mn717   2.133       .  S
N711        C720   1.334       .  A
N712        N713   1.350       .  A
N712       Mn716   2.377       .  S
N713        C720   1.384       .  A
N714        N715   1.311       .  A
N714       Mn717   2.102       .  S
N715        C719   1.327   1_545  A
Mn716      Cl718   2.478       .  S
Mn717      Cl718   2.566       .  S
C719       C1693   1.516       .  S
C720       C1660   1.538       .  S
N721        N722   1.299       .  A
N721        N727   1.307       .  A
N721       Mn750   2.117       .  S
N722        C729   1.335       .  A
N723        N725   1.304       .  A
N723        N724   1.324       .  A
N723       Mn739   2.150       .  S
N724        C730   1.356       .  A
N725        N726   1.300       .  A
N725       Mn750   2.133   1_556  S
N726        C730   1.334       .  A
N727        N728   1.321       .  A
N727       Mn739   2.192   1_554  S
N728        C729   1.363       .  A
C729       C1705   1.455       .  S
C730       C1789   1.453       .  S
N731        N737   1.312       .  A
N731        N732   1.314       .  A
N731       Mn761   2.143   1_545  S
N732        C740   1.344       .  A
N733        N734   1.318       .  A
N733        N735   1.309       .  A
N733       Mn739   2.160   1_565  S
N734        C741   1.351       .  A
N735        N736   1.305       .  A
N735       Mn761   2.115       .  S
N736        C741   1.331       .  A
N737        N738   1.315       .  A
N737       Mn739   2.179       .  S
N738        C740   1.354       .  A
Mn739      Cl763   2.572       .  S
C740       C1876   1.458       .  S
C741       C1972   1.435       .  S
N742        N743   1.304       .  A
N742        N748   1.314   1_554  A
N742       Mn750   2.148       .  S
N743        C751   1.333   1_554  A
N744        N746   1.309       .  A
N744        N745   1.346       .  A
N744       Mn762   2.349   1_554  S
N745        C752   1.385       .  A
N746        N747   1.306       .  A
N746       Mn750   2.077       .  S
N747        C752   1.326       .  A
N748        N749   1.345       .  A
N748       Mn762   2.306       .  S
N749        C751   1.379       .  A
Mn750      Cl763   2.438   1_554  S
C751       C1624   1.510       .  S
C752       C1645   1.501       .  S
N753        N754   1.294       .  A
N753        N759   1.316       .  A
N753       Mn761   2.091       .  S
N754        C764   1.322       .  A
N755        N756   1.350       .  A
N755        N757   1.309       .  A
N755       Mn762   2.362       .  S
N756        C765   1.387       .  A
N757        N758   1.296       .  A
N757       Mn761   2.052   1_545  S
N758        C765   1.317       .  A
N759        N760   1.351   1_556  A
N759       Mn762   2.363   1_565  S
N760        C764   1.386   1_554  A
Mn761      Cl763   2.487   1_565  S
Mn762      Cl763   2.543       .  S
C764       C1609   1.513       .  S
C765       C1633   1.501       .  S
N766        N767   1.349       .  A
N766        N772   1.310   1_554  A
N766       Mn795   2.371   1_565  S
N767        C774   1.382       .  A
N768        N770   1.311       .  A
N768        N769   1.297       .  A
N768       Mn784   2.102   1_545  S
N769        C775   1.327       .  A
N770        N771   1.353       .  A
N770       Mn795   2.391   1_556  S
N771        C775   1.389       .  A
N772        N773   1.297       .  A
N772       Mn784   2.120       .  S
N773        C774   1.330   1_556  A
C774       C1573   1.528       .  S
C775       C1585   1.537       .  S
N776        N782   1.317       .  A
N776        N777   1.306   1_565  A
N776       Mn806   2.140       .  S
N777        C785   1.339       .  A
N778        N779   1.324       .  A
N778        N780   1.314       .  A
N778       Mn784   2.222       .  S
N779        C786   1.355       .  A
N780        N781   1.297       .  A
N780       Mn806   2.088       .  S
N781        C786   1.331       .  A
N782        N783   1.319       .  A
N782       Mn784   2.203       .  S
N783        C785   1.349   1_565  A
Mn784      Cl808   2.574   1_565  S
C785       C1888   1.436       .  S
C786       C1981   1.440       .  S
N787        N788   1.345       .  A
N787        N793   1.310       .  A
N787       Mn795   2.362       .  S
N788        C796   1.385       .  A
N789        N791   1.305       .  A
N789        N790   1.312       .  A
N789       Mn807   2.134       .  S
N790        C797   1.338       .  A
N791        N792   1.349       .  A
N791       Mn795   2.337       .  S
N792        C797   1.387       .  A
N793        N794   1.308       .  A
N793       Mn807   2.093       .  S
N794        C796   1.334       .  A
Mn795      Cl808   2.438   1_554  S
C796       C1561   1.512       .  S
C797       C1597   1.538       .  S
N798        N799   1.330       .  A
N798        N804   1.299   1_565  A
N798       Mn806   2.190   1_554  S
N799        C809   1.368       .  A
N800        N801   1.303       .  A
N800        N802   1.303       .  A
N800       Mn807   2.140   1_556  S
N801        C810   1.343       .  A
N802        N803   1.319       .  A
N802       Mn806   2.132   1_545  S
N803        C810   1.354       .  A
N804        N805   1.292   1_545  A
N804       Mn807   2.105       .  S
N805        C809   1.326       .  A
Mn806      Cl808   2.554   1_565  S
Mn807      Cl808   2.448   1_554  S
C809       C1717   1.457       .  S
C810       C1801   1.446       .  S
N811        N812   1.311       .  A
N811        N817   1.315       .  A
N811       Mn840   2.146       .  S
N812        C819   1.345       .  A
N813        N815   1.306   1_455  A
N813        N814   1.319       .  A
N813       Mn829   2.139       .  S
N814        C820   1.349       .  A
N815        N816   1.301       .  A
N815       Mn840   2.120       .  S
N816        C820   1.334   1_655  A
N817        N818   1.321       .  A
N817       Mn829   2.191   1_655  S
N818        C819   1.351       .  A
C819       C1516   1.466       .  S
C820       C1537   1.445       .  S
N821        N827   1.310       .  A
N821        N822   1.300       .  A
N821       Mn851   2.153       .  S
N822        C830   1.336       .  A
N823        N824   1.300       .  A
N823        N825   1.305       .  A
N823       Mn829   2.101       .  S
N824        C831   1.337       .  A
N825        N826   1.327       .  A
N825       Mn851   2.182       .  S
N826        C831   1.357       .  A
N827        N828   1.326       .  A
N827       Mn829   2.182       .  S
N828        C830   1.363       .  A
Mn829      Cl853   2.535       .  S
C830       C1525   1.462       .  S
C831       C1549   1.453       .  S
N832        N833   1.318       .  A
N832        N838   1.321       .  A
N832       Mn840   2.192       .  S
N833        C841   1.340       .  A
N834        N836   1.311       .  A
N834        N835   1.339       .  A
N834       Mn852   2.305   1_655  S
N835        C842   1.376       .  A
N836        N837   1.306       .  A
N836       Mn840   2.119       .  S
N837        C842   1.337       .  A
N838        N839   1.344       .  A
N838       Mn852   2.345   1_655  S
N839        C841   1.382       .  A
Mn840      Cl853   2.494   1_655  S
C841       C1480   1.528       .  S
C842       C1501   1.494       .  S
N843        N844   1.308       .  A
N843        N849   1.321       .  A
N843       Mn851   2.091       .  S
N844        C854   1.333       .  A
N845        N846   1.358       .  A
N845        N847   1.308       .  A
N845       Mn852   2.397       .  S
N846        C855   1.396       .  A
N847        N848   1.304       .  A
N847       Mn851   2.094       .  S
N848        C855   1.326       .  A
N849        N850   1.341       .  A
N849       Mn852   2.376       .  S
N850        C854   1.377       .  A
Mn851      Cl853   2.517       .  S
Mn852      Cl853   2.505       .  S
C854       C1489   1.494       .  S
C855       C1465   1.543       .  S
N856        N857   1.316       .  A
N856        N862   1.309       .  A
N856       Mn885   2.134       .  S
N857        C864   1.343       .  A
N858        N860   1.310       .  A
N858        N859   1.319       .  A
N858       Mn874   2.171       .  S
N859        C865   1.356       .  A
N860        N861   1.305       .  A
N860       Mn885   2.135   1_545  S
N861        C865   1.333       .  A
N862        N863   1.313       .  A
N862       Mn874   2.167   1_565  S
N863        C864   1.350       .  A
C864       C1513   1.457       .  S
C865       C1453   1.440       .  S
N866        N872   1.309       .  A
N866        N867   1.300       .  A
N866       Mn896   2.117       .  S
N867        C875   1.327       .  A
N868        N869   1.318       .  A
N868        N870   1.315       .  A
N868       Mn874   2.185       .  S
N869        C876   1.347       .  A
N870        N871   1.318       .  A
N870       Mn896   2.182       .  S
N871        C876   1.351       .  A
N872        N873   1.323       .  A
N872       Mn874   2.164       .  S
N873        C875   1.353       .  A
Mn874      Cl898   2.537       .  S
C875       C1429   1.451       .  S
C876       C1441   1.476   1_545  S
N877        N878   1.303       .  A
N877        N883   1.310       .  A
N877       Mn885   2.104   1_545  S
N878        C886   1.324       .  A
N879        N881   1.316       .  A
N879        N880   1.340       .  A
N879       Mn897   2.335   1_565  S
N880        C887   1.377       .  A
N881        N882   1.299       .  A
N881       Mn885   2.076       .  S
N882        C887   1.330       .  A
N883        N884   1.348       .  A
N883       Mn897   2.339       .  S
N884        C886   1.386       .  A
Mn885      Cl898   2.495   1_565  S
C886       C1405   1.511       .  S
C887       C1417   1.482       .  S
N888        N889   1.307       .  A
N888        N894   1.315       .  A
N888       Mn896   2.101       .  S
N889        C899   1.330       .  A
N890        N891   1.344       .  A
N890        N892   1.321       .  A
N890       Mn897   2.333       .  S
N891        C900   1.378       .  A
N892        N893   1.319       .  A
N892       Mn896   2.210       .  S
N893        C900   1.342       .  A
N894        N895   1.338       .  A
N894       Mn897   2.321       .  S
N895        C899   1.375       .  A
Mn896      Cl898   2.510       .  S
Mn897      Cl898   2.524       .  S
C899       C1396   1.482   1_545  S
C900       C1381   1.527       .  S
N901        N902   1.307       .  A
N901        N907   1.313       .  A
N901       Mn930   2.080       .  S
N902        C909   1.336       .  A
N903        N905   1.312       .  A
N903        N904   1.320       .  A
N903       Mn919   2.150       .  S
N904        C910   1.343       .  A
N905        N906   1.308       .  A
N905       Mn930   2.169       .  S
N906        C910   1.339       .  A
N907        N908   1.304       .  A
N907       Mn919   2.178       .  S
N908        C909   1.340       .  A
C909       C1528   1.407       .  S
C910       C1369   1.438   1_565  S
N911        N917   1.317   1_545  A
N911        N912   1.346       .  A
N911       Mn941   2.376       .  S
N912        C920   1.380       .  A
N913        N914   1.307       .  A
N913        N915   1.309       .  A
N913       Mn919   2.132       .  S
N914        C921   1.333       .  A
N915        N916   1.361       .  A
N915       Mn941   2.439   1_565  S
N916        C921   1.400       .  A
N917        N918   1.308       .  A
N917       Mn919   2.097       .  S
N918        C920   1.333   1_565  A
Mn919      Cl943   2.552   1_565  S
C920       C1297   1.512       .  S
C921       C1321   1.576       .  S
N922        N923   1.313       .  A
N922        N928   1.303       .  A
N922       Mn930   2.137   1_545  S
N923        C931   1.349       .  A
N924        N926   1.303   1_545  A
N924        N925   1.292       .  A
N924       Mn942   2.070       .  S
N925        C932   1.325       .  A
N926        N927   1.334       .  A
N926       Mn930   2.225       .  S
N927        C932   1.369   1_565  A
N928        N929   1.301       .  A
N928       Mn942   2.109       .  S
N929        C931   1.342       .  A
Mn930      Cl943   2.521   1_565  S
C931       C1348   1.425       .  S
C932       C1360   1.464       .  S
N933        N934   1.343       .  A
N933        N939   1.314       .  A
N933       Mn941   2.319       .  S
N934        C944   1.380       .  A
N935        N936   1.301       .  A
N935        N937   1.308       .  A
N935       Mn942   2.051       .  S
N936        C945   1.322       .  A
N937        N938   1.346       .  A
N937       Mn941   2.359       .  S
N938        C945   1.386       .  A
N939        N940   1.315       .  A
N939       Mn942   2.165       .  S
N940        C944   1.337       .  A
Mn941      Cl943   2.463       .  S
Mn942      Cl943   2.484       .  S
C944       C1333   1.514       .  S
C945       C1309   1.494       .  S
N946        N947   1.322       .  A
N946        N952   1.312       .  A
N946       Mn975   2.155       .  S
N947        C954   1.347       .  A
N948        N950   1.305       .  A
N948        N949   1.328       .  A
N948       Mn964   2.215       .  S
N949        C955   1.363       .  A
N950        N951   1.307       .  A
N950       Mn975   2.120       .  S
N951        C955   1.337       .  A
N952        N953   1.314       .  A
N952       Mn964   2.178       .  S
N953        C954   1.344       .  A
C954       C1432   1.482       .  S
C955       C1273   1.480   1_655  S
N956        N962   1.319       .  A
N956        N957   1.341   1_655  A
N956       Mn986   2.357       .  S
N957        C965   1.378       .  A
N958        N959   1.306       .  A
N958        N960   1.317       .  A
N958       Mn964   2.158       .  S
N959        C966   1.332       .  A
N960        N961   1.345       .  A
N960       Mn986   2.325       .  S
N961        C966   1.382       .  A
N962        N963   1.304       .  A
N962       Mn964   2.090       .  S
N963        C965   1.329   1_655  A
Mn964      Cl988   2.488       .  S
C965       C1264   1.487       .  S
C966       C1240   1.514       .  S
N967        N968   1.309       .  A
N967        N973   1.306       .  A
N967       Mn975   2.140   1_455  S
N968        C976   1.350       .  A
N969        N971   1.304       .  A
N969        N970   1.306       .  A
N969       Mn987   2.126   1_655  S
N970        C977   1.345       .  A
N971        N972   1.310       .  A
N971       Mn975   2.114       .  S
N972        C977   1.340       .  A
N973        N974   1.306       .  A
N973       Mn987   2.115       .  S
N974        C976   1.339       .  A
Mn975      Cl988   2.562       .  S
C976       C1345   1.438       .  S
C977       C1285   1.466       .  S
N978        N979   1.351       .  A
N978        N984   1.313   1_655  A
N978       Mn986   2.383       .  S
N979        C989   1.390       .  A
N980        N981   1.307       .  A
N980        N982   1.315       .  A
N980       Mn987   2.115       .  S
N981        C990   1.333       .  A
N982        N983   1.339       .  A
N982       Mn986   2.321   1_455  S
N983        C990   1.376       .  A
N984        N985   1.305       .  A
N984       Mn987   2.081       .  S
N985        C989   1.323   1_455  A
Mn986      Cl988   2.546       .  S
Mn987      Cl988   2.483   1_455  S
C989       C1228   1.514       .  S
C990       C1252   1.491       .  S
N991        N992   1.310       .  A
N991        N997   1.313       .  A
N991      Mn1020   2.191       .  S
N992        C999   1.356       .  A
N993        N995   1.316       .  A
N993        N994   1.323       .  A
N993      Mn1009   2.198       .  S
N994       C1000   1.353       .  A
N995        N996   1.295   1_565  A
N995      Mn1020   2.117       .  S
N996       C1000   1.337   1_545  A
N997        N998   1.318       .  A
N997      Mn1009   2.125       .  S
N998        C999   1.338       .  A
C999       C1540   1.456       .  S
C1000      C1357   1.432   1_565  S
N1001      N1007   1.308   1_545  A
N1001      N1002   1.356       .  A
N1001     Mn1031   2.394   1_455  S
N1002      C1010   1.392       .  A
N1003      N1004   1.317       .  A
N1003      N1005   1.319   1_455  A
N1003     Mn1009   2.112       .  S
N1004      C1011   1.335   1_455  A
N1005      N1006   1.346       .  A
N1005     Mn1031   2.380   1_565  S
N1006      C1011   1.379       .  A
N1007      N1008   1.304   1_565  A
N1007     Mn1009   2.104       .  S
N1008      C1010   1.327       .  A
Mn1009    Cl1033   2.601   1_565  S
C1010      C1177   1.549       .  S
C1011      C1192   1.522       .  S
N1012      N1013   1.326       .  A
N1012      N1018   1.307       .  A
N1012     Mn1020   2.218   1_545  S
N1013      C1021   1.363       .  A
N1014      N1016   1.312       .  A
N1014      N1015   1.309       .  A
N1014     Mn1032   2.175   1_565  S
N1015      C1022   1.348       .  A
N1016      N1017   1.322       .  A
N1016     Mn1020   2.179   1_655  S
N1017      C1022   1.357       .  A
N1018      N1019   1.308       .  A
N1018     Mn1032   2.122   1_455  S
N1019      C1021   1.341       .  A
Mn1020    Cl1033   2.505   1_565  S
C1021      C1276   1.463       .  S
C1022      C1444   1.464       .  S
N1023      N1024   1.337       .  A
N1023      N1029   1.312       .  A
N1023     Mn1031   2.301       .  S
N1024      C1034   1.374       .  A
N1025      N1026   1.318       .  A
N1025      N1027   1.315       .  A
N1025     Mn1032   2.165       .  S
N1026      C1035   1.342       .  A
N1027      N1028   1.342   1_655  A
N1027     Mn1031   2.331       .  S
N1028      C1035   1.380   1_455  A
N1029      N1030   1.312       .  A
N1029     Mn1032   2.132       .  S
N1030      C1034   1.338       .  A
Mn1031    Cl1033   2.442   1_655  S
Mn1032    Cl1033   2.521   1_655  S
C1034      C1201   1.493       .  S
C1035      C1213   1.521       .  S
N1036      N1037   1.309       .  A
N1036      N1042   1.307       .  A
N1036     Mn1065   2.123       .  S
N1037      C1044   1.336       .  A
N1038      N1040   1.313       .  A
N1038      N1039   1.308   1_455  A
N1038     Mn1054   2.173       .  S
N1039      C1045   1.349       .  A
N1040      N1041   1.317       .  A
N1040     Mn1065   2.151       .  S
N1041      C1045   1.342   1_455  A
N1042      N1043   1.318       .  A
N1042     Mn1054   2.183       .  S
N1043      C1044   1.355       .  A
C1044      C1372   1.437       .  S
C1045      C1288   1.449       .  S
N1046      N1052   1.311       .  A
N1046      N1047   1.302       .  A
N1046     Mn1076   2.132       .  S
N1047      C1055   1.336       .  A
N1048      N1049   1.325       .  A
N1048      N1050   1.312   1_445  A
N1048     Mn1054   2.222       .  S
N1049      C1056   1.357   1_545  A
N1050      N1051   1.312   1_655  A
N1050     Mn1076   2.134   1_565  S
N1051      C1056   1.340       .  A
N1052      N1053   1.337       .  A
N1052     Mn1054   2.241   1_655  S
N1053      C1055   1.362       .  A
Mn1054    Cl1078   2.522       .  S
C1055      C1456   1.501       .  S
C1056      C1552   1.482       .  S
N1057      N1058   1.292       .  A
N1057      N1063   1.308       .  A
N1057     Mn1065   2.076       .  S
N1058      C1066   1.322       .  A
N1059      N1061   1.316       .  A
N1059      N1060   1.347       .  A
N1059     Mn1077   2.364       .  S
N1060      C1067   1.383       .  A
N1061      N1062   1.297       .  A
N1061     Mn1065   2.069       .  S
N1062      C1067   1.324       .  A
N1063      N1064   1.352   1_455  A
N1063     Mn1077   2.352       .  S
N1064      C1066   1.389   1_655  A
Mn1065    Cl1078   2.533       .  S
C1066      C1141   1.518   1_455  S
C1067      C1153   1.496       .  S
N1068      N1069   1.306       .  A
N1068      N1074   1.315   1_655  A
N1068     Mn1076   2.116   1_565  S
N1069      C1079   1.333   1_655  A
N1070      N1071   1.342       .  A
N1070      N1072   1.317       .  A
N1070     Mn1077   2.311   1_655  S
N1071      C1080   1.377       .  A
N1072      N1073   1.310       .  A
N1072     Mn1076   2.171       .  S
N1073      C1080   1.338       .  A
N1074      N1075   1.341       .  A
N1074     Mn1077   2.321   1_565  S
N1075      C1079   1.377       .  A
Mn1076    Cl1078   2.529   1_655  S
Mn1077    Cl1078   2.514       .  S
C1079      C1165   1.496       .  S
C1080      C1129   1.510       .  S
C1081      C1082   1.395       .  D
C1081      C1216   1.545       .  S
C1081      C1261   1.526   1_655  S
C1082      C2080   1.535       .  S
C1082      C2128   1.559       .  S
C1083      C1084   1.396       .  D
C1083      C1600   1.554       .  S
C1083      C1696   1.584       .  S
C1084      C1204   1.525       .  S
C1084      C1393   1.515       .  S
C1085      C1086   1.406       .  D
C1085      C2029   1.520       .  S
C1085      C2113   1.550       .  S
C1086      C1189   1.591       .  S
C1086      C1477   1.552       .  S
C1087      C1088   1.398       .  D
C1087      C1648   1.540       .  S
C1087      C1684   1.538       .  S
C1088      C1180   1.554       .  S
C1088      C1336   1.541       .  S
C1089      C1090   1.389       .  D
C1089      C2461   1.546       .  S
C1089      C2788   1.523       .  S
C1090      C1249   1.525       .  S
C1090      C1312   1.542       .  S
C1091      C1092   1.398       .  D
C1091      C2560   1.541       .  S
C1091      C2800   1.568       .  S
C1092      C1237   1.539       .  S
C1092      C1384   1.548       .  S
C1093      C1094   1.399       .  D
C1093      C2449   1.532       .  S
C1093      C2620   1.547       .  S
C1094      C1324   1.564       .  S
C1094      C1468   1.583       .  S
C1095      C1096   1.395       .  D
C1095      C1636   1.550       .  S
C1095      C1828   1.531       .  S
C1096      C1156   1.522       .  S
C1096      C1300   1.541       .  S
C1097      C1098   1.394       .  D
C1097      C2068   1.577       .  S
C1097      C2200   1.562       .  S
C1098      C1621   1.531       .  S
C1098      C1744   1.555       .  S
C1099      C1100   1.390       .  D
C1099      C2005   1.545       .  S
C1099      C2188   1.529       .  S
C1100      C1612   1.521       .  S
C1100      C1897   1.548       .  S
C1101      C1102   1.389       .  D
C1101      C2632   1.533       .  S
C1101      C2713   1.543       .  S
C1102      C1669   1.549       .  S
C1102      C1921   1.541       .  S
C1103      C1104   1.389       .  D
C1103      C1657   1.542       .  S
C1103      C1768   1.528       .  S
C1104      C2704   1.556       .  S
C1104      C2776   1.543       .  S
C1105      C1106   1.393       .  D
C1105      C2512   1.548       .  S
C1105      C2764   1.555       .  S
C1106      C1756   1.553       .  S
C1106      C1840   1.535       .  S
C1107      C1108   1.385       .  D
C1107      C2053   1.543       .  S
C1107      C2260   1.524       .  S
C1108      C1144   1.540       .  S
C1108      C1225   1.546       .  S
C1109      C1110   1.387       .  D
C1109      C2041   1.520       .  S
C1109      C2332   1.526       .  S
C1110      C1564   1.539       .  S
C1110      C1732   1.543       .  S
C1111      C1112   1.400       .  D
C1111      C2440   1.536       .  S
C1111      C2692   1.565       .  S
C1112      C2101   1.564       .  S
C1112      C2176   1.542       .  S
C1113      C1114   1.384       .  D
C1113      C2572   1.531       .  S
C1113      C2680   1.526       .  S
C1114      C2092   1.542       .  S
C1114      C2353   1.547       .  S
C1115      C1116   1.393       .  D
C1115      C2425   1.527       .  S
C1115      C2500   1.532       .  S
C1116      C2164   1.549       .  S
C1116      C2245   1.558       .  S
C1117      C1118   1.399       .  D
C1117      C2017   1.538       .  S
C1117      C2272   1.534       .  S
C1118      C1168   1.526       .  S
C1118      C1492   1.553       .  S
C1119      C1120   1.390       .  D
C1119      C1588   1.535       .  S
C1119      C1816   1.535       .  S
C1120      C1132   1.537       .  S
C1120      C1408   1.552       .  S
C1121      C1122   1.385       .  D
C1121      C1993   1.538       .  S
C1121      C2344   1.523       .  S
C1122      C1576   1.519       .  S
C1122      C1912   1.541       .  S
C1123      C1124   1.388       .  D
C1123      C2485   1.562       .  S
C1123      C2545   1.549       .  S
C1124      C2284   1.548       .  S
C1124      C2368   1.537       .  S
C1125      C1126   1.389       .  D
C1125      C2536   1.550       .  S
C1125      C2596   1.550       .  S
C1126      C1420   1.515       .  S
C1126      C1504   1.534       .  S
C1127      C1128   1.390       .  D
C1127      C2476   1.534       .  S
C1127      C2608   1.551       .  S
C1128      C1849   1.532       .  S
C1128      C1936   1.546       .  S
C1129      C1130   1.407       .  A
C1129      C1134   1.421       .  A
C1130      C1131   1.427       .  A
C1130      H1139   1.082       .  S
C1131      C1132   1.431       .  A
C1131      S1135   1.800       .  S
C1132      C1133   1.405       .  A
C1133      C1134   1.407       .  A
C1133      H1140   1.079       .  S
C1134      S1136   1.804   1_545  S
S1135      H1138   1.407       .  S
S1136      H1137   1.407       .  S
C1141      C1142   1.415   1_655  A
C1141      C1146   1.419       .  A
C1142      C1143   1.396       .  A
C1142      H1151   1.085       .  S
C1143      C1144   1.412   1_455  A
C1143      S1147   1.799       .  S
C1144      C1145   1.427       .  A
C1145      C1146   1.433       .  A
C1145      H1152   1.080       .  S
C1146      S1148   1.795       .  S
S1147      H1150   1.396       .  S
S1148      H1149   1.406       .  S
C1153      C1154   1.409       .  A
C1153      C1158   1.416       .  A
C1154      C1155   1.400       .  A
C1154      H1163   1.085       .  S
C1155      C1156   1.419       .  A
C1155      S1159   1.805       .  S
C1156      C1157   1.417       .  A
C1157      C1158   1.422       .  A
C1157      H1164   1.083   1_545  S
C1158      S1160   1.799   1_545  S
S1159      H1162   1.397       .  S
S1160      H1161   1.405       .  S
C1165      C1166   1.408   1_455  A
C1165      C1170   1.413       .  A
C1166      C1167   1.406       .  A
C1166      H1175   1.085       .  S
C1167      C1168   1.426   1_655  A
C1167      S1171   1.812       .  S
C1168      C1169   1.414       .  A
C1169      C1170   1.416       .  A
C1169      H1176   1.081       .  S
C1170      S1172   1.799       .  S
S1171      H1174   1.395       .  S
S1172      H1173   1.405       .  S
C1177      C1178   1.414       .  A
C1177      C1182   1.436       .  A
C1178      C1179   1.443       .  A
C1178      H1187   1.082       .  S
C1179      C1180   1.432       .  A
C1179      S1183   1.802       .  S
C1180      C1181   1.401       .  A
C1181      C1182   1.405       .  A
C1181      H1188   1.082   1_545  S
C1182      S1184   1.807   1_545  S
S1183      H1186   1.406       .  S
S1184      H1185   1.408   1_565  S
C1189      C1190   1.412       .  A
C1189      C1194   1.433       .  A
C1190      C1191   1.425       .  A
C1190      H1199   1.073       .  S
C1191      C1192   1.419       .  A
C1191      S1195   1.799       .  S
C1192      C1193   1.407       .  A
C1193      C1194   1.424       .  A
C1193      H1200   1.083       .  S
C1194      S1196   1.797       .  S
S1195      H1198   1.405       .  S
S1196      H1197   1.404       .  S
C1201      C1202   1.406       .  A
C1201      C1206   1.414   1_545  A
C1202      C1203   1.413       .  A
C1202      H1211   1.083       .  S
C1203      C1204   1.416   1_545  A
C1203      S1207   1.799       .  S
C1204      C1205   1.410       .  A
C1205      C1206   1.413       .  A
C1205      H1212   1.083       .  S
C1206      S1208   1.802       .  S
S1207      H1210   1.406       .  S
S1208      H1209   1.406       .  S
C1213      C1214   1.414       .  A
C1213      C1218   1.417   1_655  A
C1214      C1215   1.423       .  A
C1214      H1223   1.083       .  S
C1215      C1216   1.416       .  A
C1215      S1219   1.804       .  S
C1216      C1217   1.416   1_655  A
C1217      C1218   1.420       .  A
C1217      H1224   1.076       .  S
C1218      S1220   1.801       .  S
S1219      H1222   1.406       .  S
S1220      H1221   1.404       .  S
C1225      C1226   1.409   1_655  A
C1225      C1230   1.421       .  A
C1226      C1227   1.414       .  A
C1226      H1235   1.080       .  S
C1227      C1228   1.421   1_455  A
C1227      S1231   1.803       .  S
C1228      C1229   1.413       .  A
C1229      C1230   1.433       .  A
C1229      H1236   1.082       .  S
C1230      S1232   1.802       .  S
S1231      H1234   1.407       .  S
S1232      H1233   1.406       .  S
C1237      C1238   1.403       .  A
C1237      C1242   1.432       .  A
C1238      C1239   1.405       .  A
C1238      H1247   1.081       .  S
C1239      C1240   1.423       .  A
C1239      S1243   1.805       .  S
C1240      C1241   1.408       .  A
C1241      C1242   1.429       .  A
C1241      H1248   1.082       .  S
C1242      S1244   1.799       .  S
S1243      H1246   1.407       .  S
S1244      H1245   1.407       .  S
C1249      C1250   1.413       .  A
C1249      C1254   1.424       .  A
C1250      C1251   1.413       .  A
C1250      H1259   1.075       .  S
C1251      C1252   1.412       .  A
C1251      S1255   1.801       .  S
C1252      C1253   1.406       .  A
C1253      C1254   1.406       .  A
C1253      H1260   1.085       .  S
C1254      S1256   1.807       .  S
S1255      H1258   1.405       .  S
S1256      H1257   1.392       .  S
C1261      C1262   1.406   1_455  A
C1261      C1266   1.424       .  A
C1262      C1263   1.403       .  A
C1262      H1271   1.081       .  S
C1263      C1264   1.416   1_655  A
C1263      S1267   1.804       .  S
C1264      C1265   1.405       .  A
C1265      C1266   1.419       .  A
C1265      H1272   1.083       .  S
C1266      S1268   1.800       .  S
S1267      H1270   1.407       .  S
S1268      H1269   1.407       .  S
C1273      C1274   1.403       .  A
C1273      C1278   1.425       .  A
C1274      C1275   1.399       .  A
C1274      H1283   1.084       .  S
C1275      C1276   1.414       .  A
C1275      S1279   1.804       .  S
C1276      C1277   1.393       .  A
C1277      C1278   1.392       .  A
C1277      H1284   1.085       .  S
C1278      S1280   1.805       .  S
S1279      H1282   1.408       .  S
S1280      H1281   1.408   1_455  S
C1285      C1286   1.399       .  A
C1285      C1290   1.407       .  A
C1286      C1287   1.399       .  A
C1286      H1295   1.074       .  S
C1287      C1288   1.409       .  A
C1287      S1291   1.808   1_655  S
C1288      C1289   1.403       .  A
C1289      C1290   1.397       .  A
C1289      H1296   1.080       .  S
C1290      S1292   1.805       .  S
S1291      H1294   1.397       .  S
S1292      H1293   1.392       .  S
C1297      C1298   1.407       .  A
C1297      C1302   1.419       .  A
C1298      C1299   1.428       .  A
C1298      H1307   1.081       .  S
C1299      C1300   1.427       .  A
C1299      S1303   1.800       .  S
C1300      C1301   1.406       .  A
C1301      C1302   1.404       .  A
C1301      H1308   1.078   1_545  S
C1302      S1304   1.805   1_545  S
S1303      H1306   1.406       .  S
S1304      H1305   1.407       .  S
C1309      C1310   1.405       .  A
C1309      C1314   1.420       .  A
C1310      C1311   1.413       .  A
C1310      H1319   1.085       .  S
C1311      C1312   1.429       .  A
C1311      S1315   1.798       .  S
C1312      C1313   1.411       .  A
C1313      C1314   1.417       .  A
C1313      H1320   1.080       .  S
C1314      S1316   1.802       .  S
S1315      H1318   1.386       .  S
S1316      H1317   1.407       .  S
C1321      C1322   1.428       .  A
C1321      C1326   1.427       .  A
C1322      C1323   1.410       .  A
C1322      H1331   1.081       .  S
C1323      C1324   1.417       .  A
C1323      S1327   1.808       .  S
C1324      C1325   1.433       .  A
C1325      C1326   1.450       .  A
C1325      H1332   1.081       .  S
C1326      S1328   1.796       .  S
S1327      H1330   1.381       .  S
S1328      H1329   1.405       .  S
C1333      C1334   1.409       .  A
C1333      C1338   1.415       .  A
C1334      C1335   1.420       .  A
C1334      H1343   1.084       .  S
C1335      C1336   1.429       .  A
C1335      S1339   1.804       .  S
C1336      C1337   1.413       .  A
C1337      C1338   1.420       .  A
C1337      H1344   1.081   1_545  S
C1338      S1340   1.799   1_545  S
S1339      H1342   1.395       .  S
S1340      H1341   1.405       .  S
C1345      C1346   1.394       .  A
C1345      C1350   1.407       .  A
C1346      C1347   1.378       .  A
C1346      H1355   1.082       .  S
C1347      C1348   1.413       .  A
C1347      S1351   1.812       .  S
C1348      C1349   1.399       .  A
C1349      C1350   1.383       .  A
C1349      H1356   1.085       .  S
C1350      S1352   1.812       .  S
S1351      H1354   1.407       .  S
S1352      H1353   1.407       .  S
C1357      C1358   1.405   1_545  A
C1357      C1362   1.411       .  A
C1358      C1359   1.403       .  A
C1358      H1367   1.084       .  S
C1359      C1360   1.404   1_565  A
C1359      S1363   1.784       .  S
C1360      C1361   1.406       .  A
C1361      C1362   1.378       .  A
C1361      H1368   1.085       .  S
C1362      S1364   1.808       .  S
S1363      H1366   1.406       .  S
S1364      H1365   1.401       .  S
C1369      C1370   1.394   1_545  A
C1369      C1374   1.417       .  A
C1370      C1371   1.389   1_565  A
C1370      H1379   1.085       .  S
C1371      C1372   1.412       .  A
C1371      S1375   1.806   1_545  S
C1372      C1373   1.389       .  A
C1373      C1374   1.386       .  A
C1373      H1380   1.085       .  S
C1374      S1376   1.806       .  S
S1375      H1378   1.396   1_565  S
S1376      H1377   1.399       .  S
C1381      C1382   1.408       .  A
C1381      C1386   1.424       .  A
C1382      C1383   1.424       .  A
C1382      H1391   1.083       .  S
C1383      C1384   1.430       .  A
C1383      S1387   1.794       .  S
C1384      C1385   1.411       .  A
C1385      C1386   1.422       .  A
C1385      H1392   1.083       .  S
C1386      S1388   1.802       .  S
S1387      H1390   1.406       .  S
S1388      H1389   1.407       .  S
C1393      C1394   1.410       .  A
C1393      C1398   1.425   1_565  A
C1394      C1395   1.413       .  A
C1394      H1403   1.083       .  S
C1395      C1396   1.417       .  A
C1395      S1399   1.802       .  S
C1396      C1397   1.400   1_565  A
C1397      C1398   1.407       .  A
C1397      H1404   1.083       .  S
C1398      S1400   1.796       .  S
S1399      H1402   1.406       .  S
S1400      H1401   1.407       .  S
C1405      C1406   1.409       .  A
C1405      C1410   1.421       .  A
C1406      C1407   1.427       .  A
C1406      H1415   1.083       .  S
C1407      C1408   1.433       .  A
C1407      S1411   1.794       .  S
C1408      C1409   1.409       .  A
C1409      C1410   1.408       .  A
C1409      H1416   1.078       .  S
C1410      S1412   1.805   1_545  S
S1411      H1414   1.386       .  S
S1412      H1413   1.407       .  S
C1417      C1418   1.399       .  A
C1417      C1422   1.416       .  A
C1418      C1419   1.413       .  A
C1418      H1427   1.084       .  S
C1419      C1420   1.437       .  A
C1419      S1423   1.806       .  S
C1420      C1421   1.398       .  A
C1421      C1422   1.395       .  A
C1421      H1428   1.082       .  S
C1422      S1424   1.806       .  S
S1423      H1426   1.400       .  S
S1424      H1425   1.408       .  S
C1429      C1430   1.410       .  A
C1429      C1434   1.428       .  A
C1430      C1431   1.400       .  A
C1430      H1439   1.083       .  S
C1431      C1432   1.399       .  A
C1431      S1435   1.795       .  S
C1432      C1433   1.388       .  A
C1433      C1434   1.391       .  A
C1433      H1440   1.069       .  S
C1434      S1436   1.816       .  S
S1435      H1438   1.408       .  S
S1436      H1437   1.405       .  S
C1441      C1442   1.402       .  A
C1441      C1446   1.417       .  A
C1442      C1443   1.393       .  A
C1442      H1451   1.082       .  S
C1443      C1444   1.408       .  A
C1443      S1447   1.804       .  S
C1444      C1445   1.399       .  A
C1445      C1446   1.397       .  A
C1445      H1452   1.084       .  S
C1446      S1448   1.801       .  S
S1447      H1450   1.406       .  S
S1448      H1449   1.408       .  S
C1453      C1454   1.396       .  A
C1453      C1458   1.415       .  A
C1454      C1455   1.397       .  A
C1454      H1463   1.083       .  S
C1455      C1456   1.396       .  A
C1455      S1459   1.797       .  S
C1456      C1457   1.396       .  A
C1457      C1458   1.391       .  A
C1457      H1464   1.066       .  S
C1458      S1460   1.810       .  S
S1459      H1462   1.406       .  S
S1460      H1461   1.408   1_545  S
C1465      C1466   1.422       .  A
C1465      C1470   1.420       .  A
C1466      C1467   1.450       .  A
C1466      H1475   1.083       .  S
C1467      C1468   1.438       .  A
C1467      S1471   1.800       .  S
C1468      C1469   1.415       .  A
C1469      C1470   1.409       .  A
C1469      H1476   1.069       .  S
C1470      S1472   1.807       .  S
S1471      H1474   1.401       .  S
S1472      H1473   1.407       .  S
C1477      C1478   1.422       .  A
C1477      C1482   1.419       .  A
C1478      C1479   1.422   1_655  A
C1478      H1487   1.082   1_655  S
C1479      C1480   1.416   1_455  A
C1479      S1483   1.798       .  S
C1480      C1481   1.417       .  A
C1481      C1482   1.423       .  A
C1481      H1488   1.083       .  S
C1482      S1484   1.800       .  S
S1483      H1486   1.405       .  S
S1484      H1485   1.403       .  S
C1489      C1490   1.404   1_455  A
C1489      C1494   1.412       .  A
C1490      C1491   1.422       .  A
C1490      H1499   1.083       .  S
C1491      C1492   1.434   1_655  A
C1491      S1495   1.800       .  S
C1492      C1493   1.412       .  A
C1493      C1494   1.405       .  A
C1493      H1500   1.077       .  S
C1494      S1496   1.804       .  S
S1495      H1498   1.407       .  S
S1496      H1497   1.407       .  S
C1501      C1502   1.403       .  A
C1501      C1506   1.414       .  A
C1502      C1503   1.401       .  A
C1502      H1511   1.084       .  S
C1503      C1504   1.418       .  A
C1503      S1507   1.793       .  S
C1504      C1505   1.418       .  A
C1505      C1506   1.418       .  A
C1505      H1512   1.083       .  S
C1506      S1508   1.800       .  S
S1507      H1510   1.407       .  S
S1508      H1509   1.406       .  S
C1513      C1514   1.404       .  A
C1513      C1518   1.414       .  A
C1514      C1515   1.387       .  A
C1514      H1523   1.084       .  S
C1515      C1516   1.399       .  A
C1515      S1519   1.791       .  S
C1516      C1517   1.404       .  A
C1517      C1518   1.396       .  A
C1517      H1524   1.085       .  S
C1518      S1520   1.803       .  S
S1519      H1522   1.408   1_655  S
S1520      H1521   1.408       .  S
C1525      C1526   1.407       .  A
C1525      C1530   1.399       .  A
C1526      C1527   1.361       .  A
C1526      H1535   1.083       .  S
C1527      C1528   1.396       .  A
C1527      S1531   1.816       .  S
C1528      C1529   1.400       .  A
C1529      C1530   1.393       .  A
C1529      H1536   1.078       .  S
C1530      S1532   1.783       .  S
S1531      H1534   1.407       .  S
S1532      H1533   1.405       .  S
C1537      C1538   1.410       .  A
C1537      C1542   1.414       .  A
C1538      C1539   1.403       .  A
C1538      H1547   1.080       .  S
C1539      C1540   1.389       .  A
C1539      S1543   1.787       .  S
C1540      C1541   1.381       .  A
C1541      C1542   1.394       .  A
C1541      H1548   1.052   1_455  S
C1542      S1544   1.808   1_455  S
S1543      H1546   1.406       .  S
S1544      H1545   1.392       .  S
C1549      C1550   1.387       .  A
C1549      C1554   1.411       .  A
C1550      C1551   1.391       .  A
C1550      H1559   1.085       .  S
C1551      C1552   1.422       .  A
C1551      S1555   1.783       .  S
C1552      C1553   1.399       .  A
C1553      C1554   1.396       .  A
C1553      H1560   1.083       .  S
C1554      S1556   1.805       .  S
S1555      H1558   1.406       .  S
S1556      H1557   1.407       .  S
C1561      C1562   1.403   1_554  A
C1561      C1566   1.423       .  A
C1562      C1563   1.422       .  A
C1562      H1571   1.084       .  S
C1563      C1564   1.438   1_556  A
C1563      S1567   1.804       .  S
C1564      C1565   1.404       .  A
C1565      C1566   1.411       .  A
C1565      H1572   1.083       .  S
C1566      S1568   1.805       .  S
S1567      H1570   1.397       .  S
S1568      H1569   1.407       .  S
C1573      C1574   1.422   1_554  A
C1573      C1578   1.415       .  A
C1574      C1575   1.393   1_556  A
C1574      H1583   1.068       .  S
C1575      C1576   1.410       .  A
C1575      S1579   1.806   1_554  S
C1576      C1577   1.425       .  A
C1577      C1578   1.430       .  A
C1577      H1584   1.078       .  S
C1578      S1580   1.792       .  S
S1579      H1582   1.389       .  S
S1580      H1581   1.406       .  S
C1585      C1586   1.421       .  A
C1585      C1590   1.415       .  A
C1586      C1587   1.395       .  A
C1586      H1595   1.082       .  S
C1587      C1588   1.413       .  A
C1587      S1591   1.808   1_545  S
C1588      C1589   1.427       .  A
C1589      C1590   1.432       .  A
C1589      H1596   1.078       .  S
C1590      S1592   1.795       .  S
S1591      H1594   1.385       .  S
S1592      H1593   1.406       .  S
C1597      C1598   1.418       .  A
C1597      C1602   1.419   1_545  A
C1598      C1599   1.416       .  A
C1598      H1607   1.082       .  S
C1599      C1600   1.413   1_545  A
C1599      S1603   1.801       .  S
C1600      C1601   1.423       .  A
C1601      C1602   1.430       .  A
C1601      H1608   1.082       .  S
C1602      S1604   1.794       .  S
S1603      H1606   1.406       .  S
S1604      H1605   1.406       .  S
C1609      C1610   1.408   1_556  A
C1609      C1614   1.428       .  A
C1610      C1611   1.428       .  A
C1610      H1619   1.083       .  S
C1611      C1612   1.433       .  A
C1611      S1615   1.800       .  S
C1612      C1613   1.390   1_554  A
C1613      C1614   1.395       .  A
C1613      H1620   1.082       .  S
C1614      S1616   1.813       .  S
S1615      H1618   1.399       .  S
S1616      H1617   1.408       .  S
C1621      C1622   1.397       .  A
C1621      C1626   1.429       .  A
C1622      C1623   1.398   1_556  A
C1622      H1631   1.077   1_556  S
C1623      C1624   1.417   1_554  A
C1623      S1627   1.813       .  S
C1624      C1625   1.412       .  A
C1625      C1626   1.430       .  A
C1625      H1632   1.083       .  S
C1626      S1628   1.802       .  S
S1627      H1630   1.407       .  S
S1628      H1629   1.403       .  S
C1633      C1634   1.413       .  A
C1633      C1638   1.417       .  A
C1634      C1635   1.429       .  A
C1634      H1643   1.083       .  S
C1635      C1636   1.432       .  A
C1635      S1639   1.804       .  S
C1636      C1637   1.410       .  A
C1637      C1638   1.405       .  A
C1637      H1644   1.079   1_545  S
C1638      S1640   1.806   1_545  S
S1639      H1642   1.390       .  S
S1640      H1641   1.408   1_565  S
C1645      C1646   1.409       .  A
C1645      C1650   1.420   1_545  A
C1646      C1647   1.415       .  A
C1646      H1655   1.084       .  S
C1647      C1648   1.423       .  A
C1647      S1651   1.796       .  S
C1648      C1649   1.411   1_545  A
C1649      C1650   1.418       .  A
C1649      H1656   1.080       .  S
C1650      S1652   1.802       .  S
S1651      H1654   1.400       .  S
S1652      H1653   1.407       .  S
C1657      C1658   1.426       .  A
C1657      C1662   1.415       .  A
C1658      C1659   1.432       .  A
C1658      H1667   1.081       .  S
C1659      C1660   1.418       .  A
C1659      S1663   1.794       .  S
C1660      C1661   1.417       .  A
C1661      C1662   1.400       .  A
C1661      H1668   1.082       .  S
C1662      S1664   1.798       .  S
S1663      H1666   1.406       .  S
S1664      H1665   1.391       .  S
C1669      C1670   1.418       .  A
C1669      C1674   1.432       .  A
C1670      C1671   1.425       .  A
C1670      H1679   1.083       .  S
C1671      C1672   1.419       .  A
C1671      S1675   1.801       .  S
C1672      C1673   1.409       .  A
C1673      C1674   1.421       .  A
C1673      H1680   1.084       .  S
C1674      S1676   1.805       .  S
S1675      H1678   1.405       .  S
S1676      H1677   1.397       .  S
C1681      C1682   1.410       .  A
C1681      C1686   1.419       .  A
C1682      C1683   1.420       .  A
C1682      H1691   1.084   1_545  S
C1683      C1684   1.428       .  A
C1683      S1687   1.807   1_545  S
C1684      C1685   1.409       .  A
C1685      C1686   1.415       .  A
C1685      H1692   1.080       .  S
C1686      S1688   1.803       .  S
S1687      H1690   1.399       .  S
S1688      H1689   1.404       .  S
C1693      C1694   1.414       .  A
C1693      C1698   1.406       .  A
C1694      C1695   1.431       .  A
C1694      H1703   1.071       .  S
C1695      C1696   1.414       .  A
C1695      S1699   1.798       .  S
C1696      C1697   1.427       .  A
C1697      C1698   1.415       .  A
C1697      H1704   1.065       .  S
C1698      S1700   1.802       .  S
S1699      H1702   1.407       .  S
S1700      H1701   1.407       .  S
C1705      C1706   1.404       .  A
C1705      C1710   1.421       .  A
C1706      C1707   1.390       .  A
C1706      H1715   1.083       .  S
C1707      C1708   1.406       .  A
C1707      S1711   1.796       .  S
C1708      C1709   1.399       .  A
C1709      C1710   1.392       .  A
C1709      H1716   1.085       .  S
C1710      S1712   1.809       .  S
S1711      H1714   1.406       .  S
S1712      H1713   1.408   1_545  S
C1717      C1718   1.394       .  A
C1717      C1722   1.423   1_565  A
C1718      C1719   1.402       .  A
C1718      H1727   1.083       .  S
C1719      C1720   1.427       .  A
C1719      S1723   1.798       .  S
C1720      C1721   1.386   1_565  A
C1721      C1722   1.373       .  A
C1721      H1728   1.085       .  S
C1722      S1724   1.813       .  S
S1723      H1726   1.406       .  S
S1724      H1725   1.407       .  S
C1729      C1730   1.412   1_554  A
C1729      C1734   1.419       .  A
C1730      C1731   1.413       .  A
C1730      H1739   1.083       .  S
C1731      C1732   1.417   1_556  A
C1731      S1735   1.799       .  S
C1732      C1733   1.420       .  A
C1733      C1734   1.427       .  A
C1733      H1740   1.083       .  S
C1734      S1736   1.800       .  S
S1735      H1738   1.406       .  S
S1736      H1737   1.405       .  S
C1741      C1742   1.411       .  A
C1741      C1746   1.421       .  A
C1742      C1743   1.409       .  A
C1742      H1751   1.084   1_556  S
C1743      C1744   1.417       .  A
C1743      S1747   1.800   1_556  S
C1744      C1745   1.422       .  A
C1745      C1746   1.437       .  A
C1745      H1752   1.082       .  S
C1746      S1748   1.797       .  S
S1747      H1750   1.407       .  S
S1748      H1749   1.406       .  S
C1753      C1754   1.414       .  A
C1753      C1758   1.416       .  A
C1754      C1755   1.426       .  A
C1754      H1763   1.084       .  S
C1755      C1756   1.425       .  A
C1755      S1759   1.796       .  S
C1756      C1757   1.417       .  A
C1757      C1758   1.414       .  A
C1757      H1764   1.079       .  S
C1758      S1760   1.802       .  S
S1759      H1762   1.407       .  S
S1760      H1761   1.407       .  S
C1765      C1766   1.416       .  A
C1765      C1770   1.413       .  A
C1766      C1767   1.395       .  A
C1766      H1775   1.084       .  S
C1767      C1768   1.407       .  A
C1767      S1771   1.799       .  S
C1768      C1769   1.423       .  A
C1769      C1770   1.423       .  A
C1769      H1776   1.073       .  S
C1770      S1772   1.797       .  S
S1771      H1774   1.401       .  S
S1772      H1773   1.405       .  S
C1777      C1778   1.401       .  A
C1777      C1782   1.404       .  A
C1778      C1779   1.395       .  A
C1778      H1787   1.084       .  S
C1779      C1780   1.405       .  A
C1779      S1783   1.800       .  S
C1780      C1781   1.405       .  A
C1781      C1782   1.400       .  A
C1781      H1788   1.082       .  S
C1782      S1784   1.805       .  S
S1783      H1786   1.408       .  S
S1784      H1785   1.407       .  S
C1789      C1790   1.408       .  A
C1789      C1794   1.423       .  A
C1790      C1791   1.406       .  A
C1790      H1799   1.077       .  S
C1791      C1792   1.397       .  A
C1791      S1795   1.791       .  S
C1792      C1793   1.390       .  A
C1793      C1794   1.394       .  A
C1793      H1800   1.079       .  S
C1794      S1796   1.809   1_556  S
S1795      H1798   1.402       .  S
S1796      H1797   1.408       .  S
C1801      C1802   1.401       .  A
C1801      C1806   1.403       .  A
C1802      C1803   1.394       .  A
C1802      H1811   1.084       .  S
C1803      C1804   1.414   1_556  A
C1803      S1807   1.801       .  S
C1804      C1805   1.408   1_554  A
C1805      C1806   1.382       .  A
C1805      H1812   1.083   1_556  S
C1806      S1808   1.814       .  S
S1807      H1810   1.407   1_556  S
S1808      H1809   1.407       .  S
C1813      C1814   1.414       .  A
C1813      C1818   1.409       .  A
C1814      C1815   1.400       .  A
C1814      H1823   1.085       .  S
C1815      C1816   1.413       .  A
C1815      S1819   1.800       .  S
C1816      C1817   1.424       .  A
C1817      C1818   1.423       .  A
C1817      H1824   1.073       .  S
C1818      S1820   1.798   1_545  S
S1819      H1822   1.394       .  S
S1820      H1821   1.406       .  S
C1825      C1826   1.410       .  A
C1825      C1830   1.417       .  A
C1826      C1827   1.410       .  A
C1826      H1835   1.083   1_545  S
C1827      C1828   1.418       .  A
C1827      S1831   1.802   1_545  S
C1828      C1829   1.416       .  A
C1829      C1830   1.419       .  A
C1829      H1836   1.082       .  S
C1830      S1832   1.792       .  S
S1831      H1834   1.402       .  S
S1832      H1833   1.406       .  S
C1837      C1838   1.429       .  A
C1837      C1842   1.420       .  A
C1838      C1839   1.394       .  A
C1838      H1847   1.080       .  S
C1839      C1840   1.410       .  A
C1839      S1843   1.812       .  S
C1840      C1841   1.427       .  A
C1841      C1842   1.434       .  A
C1841      H1848   1.079       .  S
C1842      S1844   1.790       .  S
S1843      H1846   1.392       .  S
S1844      H1845   1.397       .  S
C1849      C1850   1.402       .  A
C1849      C1854   1.429       .  A
C1850      C1851   1.404       .  A
C1850      H1859   1.079       .  S
C1851      C1852   1.421       .  A
C1851      S1855   1.807       .  S
C1852      C1853   1.409       .  A
C1853      C1854   1.426       .  A
C1853      H1860   1.083       .  S
C1854      S1856   1.800       .  S
S1855      H1858   1.407       .  S
S1856      H1857   1.398       .  S
C1861      C1862   1.383       .  A
C1861      C1866   1.389       .  A
C1862      C1863   1.369       .  A
C1862      H1871   1.070       .  S
C1863      C1864   1.425       .  A
C1863      S1867   1.810       .  S
C1864      C1865   1.406       .  A
C1865      C1866   1.398       .  A
C1865      H1872   1.081       .  S
C1866      S1868   1.788       .  S
S1867      H1870   1.408       .  S
S1868      H1869   1.404       .  S
C1873      C1874   1.409       .  A
C1873      C1878   1.430       .  A
C1874      C1875   1.405       .  A
C1874      H1883   1.081       .  S
C1875      C1876   1.391       .  A
C1875      S1879   1.789       .  S
C1876      C1877   1.385       .  A
C1877      C1878   1.390       .  A
C1877      H1884   1.082       .  S
C1878      S1880   1.808   1_545  S
S1879      H1882   1.408       .  S
S1880      H1881   1.408       .  S
C1885      C1886   1.401       .  A
C1885      C1890   1.399       .  A
C1886      C1887   1.392       .  A
C1886      H1895   1.084       .  S
C1887      C1888   1.398       .  A
C1887      S1891   1.807   1_545  S
C1888      C1889   1.402       .  A
C1889      C1890   1.389       .  A
C1889      H1896   1.083       .  S
C1890      S1892   1.802       .  S
S1891      H1894   1.403       .  S
S1892      H1893   1.407       .  S
C1897      C1898   1.413   1_554  A
C1897      C1902   1.425       .  A
C1898      C1899   1.414       .  A
C1898      H1907   1.080       .  S
C1899      C1900   1.419       .  A
C1899      S1903   1.802       .  S
C1900      C1901   1.412   1_556  A
C1901      C1902   1.426       .  A
C1901      H1908   1.083       .  S
C1902      S1904   1.794       .  S
S1903      H1906   1.407       .  S
S1904      H1905   1.400       .  S
C1909      C1910   1.410       .  A
C1909      C1914   1.406   1_554  A
C1910      C1911   1.415       .  A
C1910      H1919   1.084       .  S
C1911      C1912   1.421       .  A
C1911      S1915   1.799       .  S
C1912      C1913   1.419       .  A
C1913      C1914   1.411   1_554  A
C1913      H1920   1.067   1_554  S
C1914      S1916   1.801       .  S
S1915      H1918   1.398       .  S
S1916      H1917   1.405       .  S
C1921      C1922   1.413       .  A
C1921      C1926   1.423       .  A
C1922      C1923   1.415       .  A
C1922      H1931   1.081       .  S
C1923      C1924   1.420       .  A
C1923      S1927   1.801       .  S
C1924      C1925   1.408       .  A
C1925      C1926   1.417       .  A
C1925      H1932   1.084       .  S
C1926      S1928   1.790       .  S
S1927      H1930   1.407       .  S
S1928      H1929   1.405       .  S
C1933      C1934   1.404       .  A
C1933      C1938   1.419       .  A
C1934      C1935   1.410       .  A
C1934      H1943   1.085       .  S
C1935      C1936   1.432       .  A
C1935      S1939   1.801       .  S
C1936      C1937   1.414       .  A
C1937      C1938   1.422       .  A
C1937      H1944   1.081       .  S
C1938      S1940   1.801       .  S
S1939      H1942   1.377       .  S
S1940      H1941   1.407       .  S
C1945      C1946   1.398       .  A
C1945      C1950   1.423       .  A
C1946      C1947   1.395       .  A
C1946      H1955   1.084       .  S
C1947      C1948   1.416       .  A
C1947      S1951   1.804       .  S
C1948      C1949   1.394       .  A
C1949      C1950   1.399       .  A
C1949      H1956   1.083       .  S
C1950      S1952   1.806       .  S
S1951      H1954   1.406       .  S
S1952      H1953   1.408       .  S
C1957      C1958   1.404       .  A
C1957      C1962   1.387       .  A
C1958      C1959   1.398       .  A
C1958      H1967   1.078       .  S
C1959      C1960   1.407       .  A
C1959      S1963   1.796       .  S
C1960      C1961   1.426       .  A
C1961      C1962   1.382       .  A
C1961      H1968   1.082       .  S
C1962      S1964   1.799       .  S
S1963      H1966   1.407       .  S
S1964      H1965   1.400       .  S
C1969      C1970   1.396   1_554  A
C1969      C1974   1.400       .  A
C1970      C1971   1.387       .  A
C1970      H1979   1.080       .  S
C1971      C1972   1.415       .  A
C1971      S1975   1.805       .  S
C1972      C1973   1.406   1_556  A
C1973      C1974   1.393       .  A
C1973      H1980   1.084       .  S
C1974      S1976   1.797       .  S
S1975      H1978   1.407       .  S
S1976      H1977   1.409       .  S
C1981      C1982   1.401   1_556  A
C1981      C1986   1.404       .  A
C1982      C1983   1.393       .  A
C1982      H1991   1.075       .  S
C1983      C1984   1.409       .  A
C1983      S1987   1.809       .  S
C1984      C1985   1.403   1_554  A
C1985      C1986   1.401       .  A
C1985      H1992   1.083       .  S
C1986      S1988   1.802       .  S
S1987      H1990   1.408       .  S
S1988      H1989   1.407       .  S
C1993      C1994   1.429       .  A
C1993      C1998   1.410   1_554  A
C1994      C1995   1.432       .  A
C1994      H2003   1.080       .  S
C1995      C1996   1.415       .  A
C1995      S1999   1.798       .  S
C1996      C1997   1.419   1_554  A
C1997      C1998   1.391       .  A
C1997      H2004   1.081       .  S
C1998      S2000   1.811       .  S
S1999      H2002   1.406       .  S
S2000      H2001   1.382       .  S
C2005      C2006   1.406       .  A
C2005      C2010   1.439   1_554  A
C2006      C2007   1.415       .  A
C2006      H2015   1.083       .  S
C2007      C2008   1.422       .  A
C2007      S2011   1.804       .  S
C2008      C2009   1.402   1_554  A
C2009      C2010   1.419       .  A
C2009      H2016   1.084       .  S
C2010      S2012   1.807       .  S
S2011      H2014   1.407       .  S
S2012      H2013   1.396       .  S
C2017      C2018   1.391   1_455  A
C2017      C2022   1.437       .  A
C2018      C2019   1.395       .  A
C2018      H2027   1.073       .  S
C2019      C2020   1.431   1_655  A
C2019      S2023   1.818       .  S
C2020      C2021   1.410       .  A
C2021      C2022   1.434       .  A
C2021      H2028   1.083       .  S
C2022      S2024   1.798       .  S
S2023      H2026   1.407       .  S
S2024      H2025   1.402       .  S
C2029      C2030   1.415   1_655  A
C2029      C2034   1.419       .  A
C2030      C2031   1.415       .  A
C2030      H2039   1.084       .  S
C2031      C2032   1.416   1_455  A
C2031      S2035   1.798       .  S
C2032      C2033   1.408       .  A
C2033      C2034   1.407       .  A
C2033      H2040   1.083       .  S
C2034      S2036   1.806       .  S
S2035      H2038   1.404       .  S
S2036      H2037   1.402       .  S
C2041      C2042   1.395   1_554  A
C2041      C2046   1.431       .  A
C2042      C2043   1.399       .  A
C2042      H2051   1.082       .  S
C2043      C2044   1.425   1_556  A
C2043      S2047   1.816       .  S
C2044      C2045   1.406       .  A
C2045      C2046   1.422       .  A
C2045      H2052   1.083       .  S
C2046      S2048   1.803       .  S
S2047      H2050   1.406       .  S
S2048      H2049   1.398       .  S
C2053      C2054   1.410       .  A
C2053      C2058   1.431   1_655  A
C2054      C2055   1.405       .  A
C2054      H2063   1.082       .  S
C2055      C2056   1.414   1_655  A
C2055      S2059   1.804       .  S
C2056      C2057   1.408       .  A
C2057      C2058   1.420       .  A
C2057      H2064   1.084       .  S
C2058      S2060   1.797       .  S
S2059      H2062   1.408       .  S
S2060      H2061   1.384       .  S
C2065      C2066   1.406       .  A
C2065      C2070   1.420       .  A
C2066      C2067   1.411       .  A
C2066      H2075   1.085   1_556  S
C2067      C2068   1.438       .  A
C2067      S2071   1.798   1_556  S
C2068      C2069   1.428       .  A
C2069      C2070   1.442       .  A
C2069      H2076   1.082       .  S
C2070      S2072   1.798       .  S
S2071      H2074   1.381       .  S
S2072      H2073   1.405       .  S
C2077      C2078   1.417   1_655  A
C2077      C2082   1.421       .  A
C2078      C2079   1.403       .  A
C2078      H2087   1.084       .  S
C2079      C2080   1.410   1_455  A
C2079      S2083   1.799       .  S
C2080      C2081   1.421       .  A
C2081      C2082   1.433       .  A
C2081      H2088   1.080       .  S
C2082      S2084   1.797       .  S
S2083      H2086   1.403       .  S
S2084      H2085   1.404       .  S
C2089      C2090   1.414       .  A
C2089      C2094   1.419       .  A
C2090      C2091   1.409       .  A
C2090      H2099   1.085       .  S
C2091      C2092   1.419       .  A
C2091      S2095   1.802       .  S
C2092      C2093   1.422       .  A
C2093      C2094   1.427       .  A
C2093      H2100   1.081       .  S
C2094      S2096   1.799       .  S
S2095      H2098   1.388       .  S
S2096      H2097   1.404       .  S
C2101      C2102   1.403       .  A
C2101      C2106   1.436       .  A
C2102      C2103   1.406       .  A
C2102      H2111   1.076       .  S
C2103      C2104   1.424       .  A
C2103      S2107   1.806       .  S
C2104      C2105   1.417       .  A
C2105      C2106   1.442       .  A
C2105      H2112   1.083       .  S
C2106      S2108   1.795       .  S
S2107      H2110   1.408       .  S
S2108      H2109   1.398       .  S
C2113      C2114   1.414       .  A
C2113      C2118   1.426   1_655  A
C2114      C2115   1.416       .  A
C2114      H2123   1.082       .  S
C2115      C2116   1.418       .  A
C2115      S2119   1.802       .  S
C2116      C2117   1.409   1_655  A
C2117      C2118   1.420       .  A
C2117      H2124   1.084       .  S
C2118      S2120   1.800       .  S
S2119      H2122   1.406       .  S
S2120      H2121   1.405       .  S
C2125      C2126   1.415       .  A
C2125      C2130   1.427   1_655  A
C2126      C2127   1.439       .  A
C2126      H2135   1.083       .  S
C2127      C2128   1.435       .  A
C2127      S2131   1.801       .  S
C2128      C2129   1.407   1_655  A
C2129      C2130   1.409       .  A
C2129      H2136   1.082       .  S
C2130      S2132   1.806       .  S
S2131      H2134   1.400       .  S
S2132      H2133   1.407       .  S
C2137      C2138   1.395       .  A
C2137      C2142   1.400   1_455  A
C2138      C2139   1.391       .  A
C2138      H2147   1.084       .  S
C2139      C2140   1.412       .  A
C2139      S2143   1.810       .  S
C2140      C2141   1.400   1_455  A
C2141      C2142   1.390       .  A
C2141      H2148   1.085       .  S
C2142      S2144   1.793       .  S
S2143      H2146   1.406       .  S
S2144      H2145   1.405       .  S
C2149      C2150   1.397       .  A
C2149      C2154   1.405       .  A
C2150      C2151   1.385       .  A
C2150      H2159   1.083       .  S
C2151      C2152   1.408       .  A
C2151      S2155   1.798       .  S
C2152      C2153   1.403       .  A
C2153      C2154   1.389       .  A
C2153      H2160   1.084       .  S
C2154      S2156   1.805       .  S
S2155      H2158   1.406       .  S
S2156      H2157   1.407   1_655  S
C2161      C2162   1.410       .  A
C2161      C2166   1.426       .  A
C2162      C2163   1.432       .  A
C2162      H2171   1.083       .  S
C2163      C2164   1.439       .  A
C2163      S2167   1.799       .  S
C2164      C2165   1.405       .  A
C2165      C2166   1.412       .  A
C2165      H2172   1.084       .  S
C2166      S2168   1.805       .  S
S2167      H2170   1.391       .  S
S2168      H2169   1.407       .  S
C2173      C2174   1.410       .  A
C2173      C2178   1.424       .  A
C2174      C2175   1.409       .  A
C2174      H2183   1.085       .  S
C2175      C2176   1.421       .  A
C2175      S2179   1.800       .  S
C2176      C2177   1.415       .  A
C2177      C2178   1.429       .  A
C2177      H2184   1.081       .  S
C2178      S2180   1.797       .  S
S2179      H2182   1.400       .  S
S2180      H2181   1.402       .  S
C2185      C2186   1.412   1_554  A
C2185      C2190   1.412       .  A
C2186      C2187   1.395       .  A
C2186      H2195   1.083       .  S
C2187      C2188   1.409   1_556  A
C2187      S2191   1.801       .  S
C2188      C2189   1.424       .  A
C2189      C2190   1.423       .  A
C2189      H2196   1.080       .  S
C2190      S2192   1.795       .  S
S2191      H2194   1.406       .  S
S2192      H2193   1.405       .  S
C2197      C2198   1.411   1_556  A
C2197      C2202   1.423       .  A
C2198      C2199   1.404       .  A
C2198      H2207   1.080       .  S
C2199      C2200   1.424   1_554  A
C2199      S2203   1.801       .  S
C2200      C2201   1.429       .  A
C2201      C2202   1.440       .  A
C2201      H2208   1.083       .  S
C2202      S2204   1.796       .  S
S2203      H2206   1.406       .  S
S2204      H2205   1.405       .  S
C2209      C2210   1.408       .  A
C2209      C2214   1.422       .  A
C2210      C2211   1.397       .  A
C2210      H2219   1.083       .  S
C2211      C2212   1.402       .  A
C2211      S2215   1.798       .  S
C2212      C2213   1.392       .  A
C2213      C2214   1.391       .  A
C2213      H2220   1.080       .  S
C2214      S2216   1.796       .  S
S2215      H2218   1.409       .  S
S2216      H2217   1.408       .  S
C2221      C2222   1.397       .  A
C2221      C2226   1.387       .  A
C2222      C2223   1.378   1_556  A
C2222      H2231   1.083   1_556  S
C2223      C2224   1.400   1_554  A
C2223      S2227   1.811       .  S
C2224      C2225   1.409       .  A
C2225      C2226   1.397       .  A
C2225      H2232   1.083       .  S
C2226      S2228   1.785       .  S
S2227      H2230   1.407       .  S
S2228      H2229   1.399       .  S
C2233      C2234   1.401       .  A
C2233      C2238   1.406       .  A
C2234      C2235   1.388       .  A
C2234      H2243   1.085       .  S
C2235      C2236   1.412       .  A
C2235      S2239   1.804       .  S
C2236      C2237   1.404       .  A
C2237      C2238   1.383       .  A
C2237      H2244   1.083       .  S
C2238      S2240   1.804       .  S
S2239      H2242   1.409   1_556  S
S2240      H2241   1.395       .  S
C2245      C2246   1.412       .  A
C2245      C2250   1.425       .  A
C2246      C2247   1.417       .  A
C2246      H2255   1.081       .  S
C2247      C2248   1.423       .  A
C2247      S2251   1.803       .  S
C2248      C2249   1.415       .  A
C2249      C2250   1.435       .  A
C2249      H2256   1.082       .  S
C2250      S2252   1.795       .  S
S2251      H2254   1.407       .  S
S2252      H2253   1.407       .  S
C2257      C2258   1.411       .  A
C2257      C2262   1.413   1_655  A
C2258      C2259   1.407       .  A
C2258      H2267   1.084       .  S
C2259      C2260   1.413       .  A
C2259      S2263   1.796       .  S
C2260      C2261   1.416   1_655  A
C2261      C2262   1.414       .  A
C2261      H2268   1.076       .  S
C2262      S2264   1.798       .  S
S2263      H2266   1.404       .  S
S2264      H2265   1.406       .  S
C2269      C2270   1.406   1_455  A
C2269      C2274   1.427       .  A
C2270      C2271   1.424       .  A
C2270      H2279   1.083       .  S
C2271      C2272   1.433   1_655  A
C2271      S2275   1.793       .  S
C2272      C2273   1.398       .  A
C2273      C2274   1.399       .  A
C2273      H2280   1.073       .  S
C2274      S2276   1.807       .  S
S2275      H2278   1.399       .  S
S2276      H2277   1.408       .  S
C2281      C2282   1.414       .  A
C2281      C2286   1.417       .  A
C2282      C2283   1.426       .  A
C2282      H2291   1.083       .  S
C2283      C2284   1.420       .  A
C2283      S2287   1.800       .  S
C2284      C2285   1.412       .  A
C2285      C2286   1.411       .  A
C2285      H2292   1.072       .  S
C2286      S2288   1.804       .  S
S2287      H2290   1.406       .  S
S2288      H2289   1.406       .  S
C2293      C2294   1.413       .  A
C2293      C2298   1.430       .  A
C2294      C2295   1.399       .  A
C2294      H2303   1.073       .  S
C2295      C2296   1.384       .  A
C2295      S2299   1.788       .  S
C2296      C2297   1.397       .  A
C2297      C2298   1.400       .  A
C2297      H2304   1.070       .  S
C2298      S2300   1.806       .  S
S2299      H2302   1.410       .  S
S2300      H2301   1.407       .  S
C2305      C2306   1.402       .  A
C2305      C2310   1.422   1_455  A
C2306      C2307   1.395       .  A
C2306      H2315   1.076       .  S
C2307      C2308   1.398       .  A
C2307      S2311   1.787       .  S
C2308      C2309   1.397       .  A
C2309      C2310   1.396   1_455  A
C2309      H2316   1.082   1_455  S
C2310      S2312   1.804       .  S
S2311      H2314   1.405       .  S
S2312      H2313   1.407       .  S
C2317      C2318   1.386       .  A
C2317      C2322   1.411       .  A
C2318      C2319   1.388       .  A
C2318      H2327   1.082       .  S
C2319      C2320   1.424   1_455  A
C2319      S2323   1.806       .  S
C2320      C2321   1.401       .  A
C2321      C2322   1.396   1_655  A
C2321      H2328   1.085       .  S
C2322      S2324   1.808   1_455  S
S2323      H2326   1.391       .  S
S2324      H2325   1.401   1_655  S
C2329      C2330   1.406       .  A
C2329      C2334   1.416   1_554  A
C2330      C2331   1.412       .  A
C2330      H2339   1.084       .  S
C2331      C2332   1.418       .  A
C2331      S2335   1.792       .  S
C2332      C2333   1.410   1_554  A
C2333      C2334   1.410       .  A
C2333      H2340   1.083       .  S
C2334      S2336   1.802       .  S
S2335      H2338   1.405       .  S
S2336      H2337   1.406       .  S
C2341      C2342   1.416       .  A
C2341      C2346   1.414       .  A
C2342      C2343   1.396       .  A
C2342      H2351   1.082       .  S
C2343      C2344   1.409       .  A
C2343      S2347   1.799       .  S
C2344      C2345   1.422       .  A
C2345      C2346   1.420       .  A
C2345      H2352   1.082   1_554  S
C2346      S2348   1.796   1_554  S
S2347      H2350   1.401       .  S
S2348      H2349   1.407       .  S
C2353      C2354   1.412       .  A
C2353      C2358   1.425       .  A
C2354      C2355   1.413       .  A
C2354      H2363   1.070       .  S
C2355      C2356   1.414       .  A
C2355      S2359   1.808       .  S
C2356      C2357   1.414       .  A
C2357      C2358   1.424       .  A
C2357      H2364   1.083       .  S
C2358      S2360   1.801       .  S
S2359      H2362   1.407       .  S
S2360      H2361   1.399       .  S
C2365      C2366   1.418       .  A
C2365      C2370   1.420       .  A
C2366      C2367   1.408       .  A
C2366      H2375   1.082       .  S
C2367      C2368   1.411       .  A
C2367      S2371   1.808       .  S
C2368      C2369   1.423       .  A
C2369      C2370   1.431       .  A
C2369      H2376   1.083       .  S
C2370      S2372   1.798       .  S
S2371      H2374   1.406       .  S
S2372      H2373   1.403       .  S
C2377      C2378   1.398       .  A
C2377      C2382   1.412       .  A
C2378      C2379   1.391       .  A
C2378      H2387   1.084       .  S
C2379      C2380   1.404       .  A
C2379      S2383   1.779       .  S
C2380      C2381   1.402       .  A
C2381      C2382   1.395       .  A
C2381      H2388   1.083       .  S
C2382      S2384   1.801       .  S
S2383      H2386   1.407       .  S
S2384      H2385   1.407       .  S
C2389      C2390   1.397       .  A
C2389      C2394   1.399       .  A
C2390      C2391   1.396       .  A
C2390      H2399   1.076       .  S
C2391      C2392   1.411       .  A
C2391      S2395   1.807       .  S
C2392      C2393   1.407       .  A
C2393      C2394   1.399       .  A
C2393      H2400   1.084       .  S
C2394      S2396   1.788       .  S
S2395      H2398   1.394       .  S
S2396      H2397   1.404       .  S
C2401      C2402   1.406       .  A
C2401      C2406   1.434   1_554  A
C2402      C2403   1.397       .  A
C2402      H2411   1.084       .  S
C2403      C2404   1.397       .  A
C2403      S2407   1.801       .  S
C2404      C2405   1.394       .  A
C2405      C2406   1.399   1_554  A
C2405      H2412   1.085       .  S
C2406      S2408   1.805       .  S
S2407      H2410   1.408       .  S
S2408      H2409   1.407       .  S
C2413      C2414   1.391       .  A
C2413      C2418   1.412       .  A
C2414      C2415   1.391       .  A
C2414      H2423   1.085       .  S
C2415      C2416   1.419       .  A
C2415      S2419   1.803       .  S
C2416      C2417   1.401   1_554  A
C2417      C2418   1.391   1_556  A
C2417      H2424   1.084       .  S
C2418      S2420   1.810   1_554  S
S2419      H2422   1.394       .  S
S2420      H2421   1.398   1_556  S
C2425      C2426   1.404       .  A
C2425      C2430   1.430       .  A
C2426      C2427   1.406       .  A
C2426      H2435   1.081       .  S
C2427      C2428   1.419       .  A
C2427      S2431   1.811       .  S
C2428      C2429   1.404       .  A
C2429      C2430   1.419       .  A
C2429      H2436   1.083       .  S
C2430      S2432   1.802       .  S
S2431      H2434   1.407       .  S
S2432      H2433   1.391       .  S
C2437      C2438   1.413       .  A
C2437      C2442   1.450       .  A
C2438      C2439   1.431       .  A
C2438      H2447   1.083       .  S
C2439      C2440   1.428       .  A
C2439      S2443   1.793       .  S
C2440      C2441   1.392       .  A
C2441      C2442   1.399       .  A
C2441      H2448   1.080       .  S
C2442      S2444   1.824       .  S
S2443      H2446   1.399       .  S
S2444      H2445   1.401       .  S
C2449      C2450   1.406       .  A
C2449      C2454   1.428       .  A
C2450      C2451   1.399       .  A
C2450      H2459   1.069       .  S
C2451      C2452   1.411       .  A
C2451      S2455   1.805       .  S
C2452      C2453   1.410       .  A
C2453      C2454   1.424       .  A
C2453      H2460   1.083       .  S
C2454      S2456   1.802       .  S
S2455      H2458   1.407       .  S
S2456      H2457   1.398       .  S
C2461      C2462   1.422       .  A
C2461      C2466   1.424       .  A
C2462      C2463   1.431       .  A
C2462      H2471   1.083       .  S
C2463      C2464   1.418       .  A
C2463      S2467   1.800       .  S
C2464      C2465   1.412       .  A
C2465      C2466   1.408       .  A
C2465      H2472   1.085       .  S
C2466      S2468   1.805       .  S
S2467      H2470   1.405       .  S
S2468      H2469   1.388       .  S
C2473      C2474   1.410       .  A
C2473      C2478   1.421       .  A
C2474      C2475   1.426       .  A
C2474      H2483   1.083       .  S
C2475      C2476   1.430       .  A
C2475      S2479   1.799       .  S
C2476      C2477   1.402       .  A
C2477      C2478   1.407       .  A
C2477      H2484   1.081       .  S
C2478      S2480   1.805       .  S
S2479      H2482   1.398       .  S
S2480      H2481   1.407       .  S
C2485      C2486   1.425       .  A
C2485      C2490   1.425       .  A
C2486      C2487   1.441       .  A
C2486      H2495   1.080       .  S
C2487      C2488   1.419       .  A
C2487      S2491   1.797       .  S
C2488      C2489   1.410       .  A
C2489      C2490   1.409       .  A
C2489      H2496   1.084       .  S
C2490      S2492   1.798       .  S
S2491      H2494   1.403       .  S
S2492      H2493   1.407       .  S
C2497      C2498   1.407       .  A
C2497      C2502   1.416       .  A
C2498      C2499   1.417       .  A
C2498      H2507   1.084       .  S
C2499      C2500   1.420       .  A
C2499      S2503   1.795       .  S
C2500      C2501   1.409       .  A
C2501      C2502   1.409       .  A
C2501      H2508   1.082       .  S
C2502      S2504   1.803       .  S
S2503      H2506   1.404       .  S
S2504      H2505   1.406       .  S
C2509      C2510   1.415       .  A
C2509      C2514   1.418       .  A
C2510      C2511   1.401       .  A
C2510      H2519   1.077       .  S
C2511      C2512   1.415       .  A
C2511      S2515   1.800       .  S
C2512      C2513   1.429       .  A
C2513      C2514   1.434       .  A
C2513      H2520   1.083       .  S
C2514      S2516   1.797       .  S
S2515      H2518   1.406       .  S
S2516      H2517   1.406       .  S
C2521      C2522   1.402       .  A
C2521      C2526   1.414       .  A
C2522      C2523   1.398       .  A
C2522      H2531   1.083       .  S
C2523      C2524   1.412       .  A
C2523      S2527   1.799       .  S
C2524      C2525   1.403       .  A
C2525      C2526   1.396       .  A
C2525      H2532   1.083       .  S
C2526      S2528   1.811       .  S
S2527      H2530   1.408       .  S
S2528      H2529   1.407       .  S
C2533      C2534   1.411       .  A
C2533      C2538   1.427       .  A
C2534      C2535   1.438       .  A
C2534      H2543   1.082       .  S
C2535      C2536   1.433       .  A
C2535      S2539   1.795       .  S
C2536      C2537   1.404       .  A
C2537      C2538   1.402       .  A
C2537      H2544   1.083       .  S
C2538      S2540   1.807       .  S
S2539      H2542   1.407       .  S
S2540      H2541   1.408       .  S
C2545      C2546   1.420       .  A
C2545      C2550   1.427       .  A
C2546      C2547   1.431       .  A
C2546      H2555   1.083       .  S
C2547      C2548   1.424       .  A
C2547      S2551   1.799       .  S
C2548      C2549   1.405       .  A
C2549      C2550   1.409       .  A
C2549      H2556   1.085       .  S
C2550      S2552   1.793       .  S
S2551      H2554   1.403       .  S
S2552      H2553   1.394       .  S
C2557      C2558   1.407       .  A
C2557      C2562   1.421       .  A
C2558      C2559   1.420       .  A
C2558      H2567   1.084       .  S
C2559      C2560   1.434       .  A
C2559      S2563   1.809       .  S
C2560      C2561   1.404       .  A
C2561      C2562   1.411       .  A
C2561      H2568   1.083       .  S
C2562      S2564   1.803       .  S
S2563      H2566   1.402       .  S
S2564      H2565   1.407       .  S
C2569      C2570   1.408       .  A
C2569      C2574   1.421       .  A
C2570      C2571   1.395       .  A
C2570      H2579   1.085       .  S
C2571      C2572   1.412       .  A
C2571      S2575   1.787       .  S
C2572      C2573   1.419       .  A
C2573      C2574   1.430       .  A
C2573      H2580   1.083       .  S
C2574      S2576   1.798       .  S
S2575      H2578   1.406       .  S
S2576      H2577   1.404       .  S
C2581      C2582   1.401       .  A
C2581      C2586   1.431       .  A
C2582      C2583   1.401       .  A
C2582      H2591   1.076       .  S
C2583      C2584   1.404       .  A
C2583      S2587   1.794       .  S
C2584      C2585   1.390       .  A
C2585      C2586   1.390       .  A
C2585      H2592   1.084       .  S
C2586      S2588   1.808       .  S
S2587      H2590   1.397       .  S
S2588      H2589   1.408       .  S
C2593      C2594   1.410       .  A
C2593      C2598   1.426       .  A
C2594      C2595   1.434       .  A
C2594      H2603   1.083       .  S
C2595      C2596   1.437       .  A
C2595      S2599   1.799       .  S
C2596      C2597   1.401       .  A
C2597      C2598   1.407       .  A
C2597      H2604   1.080       .  S
C2598      S2600   1.809       .  S
S2599      H2602   1.397       .  S
S2600      H2601   1.407       .  S
C2605      C2606   1.408       .  A
C2605      C2610   1.420       .  A
C2606      C2607   1.415       .  A
C2606      H2615   1.083       .  S
C2607      C2608   1.424       .  A
C2607      S2611   1.798       .  S
C2608      C2609   1.419       .  A
C2609      C2610   1.428       .  A
C2609      H2616   1.080       .  S
C2610      S2612   1.800       .  S
S2611      H2614   1.407       .  S
S2612      H2613   1.405       .  S
C2617      C2618   1.398       .  A
C2617      C2622   1.419       .  A
C2618      C2619   1.403       .  A
C2618      H2627   1.085       .  S
C2619      C2620   1.428       .  A
C2619      S2623   1.797       .  S
C2620      C2621   1.417       .  A
C2621      C2622   1.424       .  A
C2621      H2628   1.081       .  S
C2622      S2624   1.800       .  S
S2623      H2626   1.408       .  S
S2624      H2625   1.405       .  S
C2629      C2630   1.413       .  A
C2629      C2634   1.414       .  A
C2630      C2631   1.422       .  A
C2630      H2639   1.083       .  S
C2631      C2632   1.417       .  A
C2631      S2635   1.805       .  S
C2632      C2633   1.411       .  A
C2633      C2634   1.407       .  A
C2633      H2640   1.079       .  S
C2634      S2636   1.803       .  S
S2635      H2638   1.407       .  S
S2636      H2637   1.407       .  S
C2641      C2642   1.401       .  A
C2641      C2646   1.408       .  A
C2642      C2643   1.388       .  A
C2642      H2651   1.084       .  S
C2643      C2644   1.405       .  A
C2643      S2647   1.793       .  S
C2644      C2645   1.404       .  A
C2645      C2646   1.394       .  A
C2645      H2652   1.082       .  S
C2646      S2648   1.794       .  S
S2647      H2650   1.406       .  S
S2648      H2649   1.407       .  S
C2653      C2654   1.399       .  A
C2653      C2658   1.400       .  A
C2654      C2655   1.392       .  A
C2654      H2663   1.074       .  S
C2655      C2656   1.407       .  A
C2655      S2659   1.806       .  S
C2656      C2657   1.401       .  A
C2657      C2658   1.388       .  A
C2657      H2664   1.083       .  S
C2658      S2660   1.786       .  S
S2659      H2662   1.407       .  S
S2660      H2661   1.407       .  S
C2665      C2666   1.402       .  A
C2665      C2670   1.424       .  A
C2666      C2667   1.399       .  A
C2666      H2675   1.081       .  S
C2667      C2668   1.403       .  A
C2667      S2671   1.785       .  S
C2668      C2669   1.387       .  A
C2669      C2670   1.383       .  A
C2669      H2676   1.084       .  S
C2670      S2672   1.810       .  S
S2671      H2674   1.407       .  S
S2672      H2673   1.408       .  S
C2677      C2678   1.402       .  A
C2677      C2682   1.424       .  A
C2678      C2679   1.418       .  A
C2678      H2687   1.082       .  S
C2679      C2680   1.427       .  A
C2679      S2683   1.799       .  S
C2680      C2681   1.401       .  A
C2681      C2682   1.409       .  A
C2681      H2688   1.080       .  S
C2682      S2684   1.810       .  S
S2683      H2686   1.407       .  S
S2684      H2685   1.407       .  S
C2689      C2690   1.413       .  A
C2689      C2694   1.414       .  A
C2690      C2691   1.425       .  A
C2690      H2699   1.084       .  S
C2691      C2692   1.429       .  A
C2691      S2695   1.798       .  S
C2692      C2693   1.420       .  A
C2693      C2694   1.423       .  A
C2693      H2700   1.075       .  S
C2694      S2696   1.799       .  S
S2695      H2698   1.392       .  S
S2696      H2697   1.406       .  S
C2701      C2702   1.414       .  A
C2701      C2706   1.417       .  A
C2702      C2703   1.418       .  A
C2702      H2711   1.084       .  S
C2703      C2704   1.423       .  A
C2703      S2707   1.795       .  S
C2704      C2705   1.419       .  A
C2705      C2706   1.425       .  A
C2705      H2712   1.076       .  S
C2706      S2708   1.800       .  S
S2707      H2710   1.403       .  S
S2708      H2709   1.407       .  S
C2713      C2714   1.421       .  A
C2713      C2718   1.416       .  A
C2714      C2715   1.433       .  A
C2714      H2723   1.082       .  S
C2715      C2716   1.420       .  A
C2715      S2719   1.802       .  S
C2716      C2717   1.415       .  A
C2717      C2718   1.411       .  A
C2717      H2724   1.084       .  S
C2718      S2720   1.799       .  S
S2719      H2722   1.407       .  S
S2720      H2721   1.405       .  S
C2725      C2726   1.402       .  A
C2725      C2730   1.410       .  A
C2726      C2727   1.387       .  A
C2726      H2735   1.083       .  S
C2727      C2728   1.399       .  A
C2727      S2731   1.798       .  S
C2728      C2729   1.398       .  A
C2729      C2730   1.390       .  A
C2729      H2736   1.080       .  S
C2730      S2732   1.808       .  S
S2731      H2734   1.407       .  S
S2732      H2733   1.406       .  S
C2737      C2738   1.401       .  A
C2737      C2742   1.399       .  A
C2738      C2739   1.397       .  A
C2738      H2747   1.084       .  S
C2739      C2740   1.419       .  A
C2739      S2743   1.800       .  S
C2740      C2741   1.412       .  A
C2741      C2742   1.387       .  A
C2741      H2748   1.084       .  S
C2742      S2744   1.801       .  S
S2743      H2746   1.407       .  S
S2744      H2745   1.406       .  S
C2749      C2750   1.405       .  A
C2749      C2754   1.401       .  A
C2750      C2751   1.400       .  A
C2750      H2759   1.083       .  S
C2751      C2752   1.398       .  A
C2751      S2755   1.794       .  S
C2752      C2753   1.405       .  A
C2753      C2754   1.398       .  A
C2753      H2760   1.083       .  S
C2754      S2756   1.799       .  S
S2755      H2758   1.406       .  S
S2756      H2757   1.403       .  S
C2761      C2762   1.424       .  A
C2761      C2766   1.407       .  A
C2762      C2763   1.417       .  A
C2762      H2771   1.085       .  S
C2763      C2764   1.416       .  A
C2763      S2767   1.805       .  S
C2764      C2765   1.427       .  A
C2765      C2766   1.418       .  A
C2765      H2772   1.070       .  S
C2766      S2768   1.799       .  S
S2767      H2770   1.404       .  S
S2768      H2769   1.407       .  S
C2773      C2774   1.410       .  A
C2773      C2778   1.415       .  A
C2774      C2775   1.419       .  A
C2774      H2783   1.084       .  S
C2775      C2776   1.424       .  A
C2775      S2779   1.791       .  S
C2776      C2777   1.413       .  A
C2777      C2778   1.411       .  A
C2777      H2784   1.078       .  S
C2778      S2780   1.802       .  S
S2779      H2782   1.402       .  S
S2780      H2781   1.407       .  S
C2785      C2786   1.408       .  A
C2785      C2790   1.420       .  A
C2786      C2787   1.427       .  A
C2786      H2795   1.080       .  S
C2787      C2788   1.423       .  A
C2787      S2791   1.805       .  S
C2788      C2789   1.402       .  A
C2789      C2790   1.400       .  A
C2789      H2796   1.081       .  S
C2790      S2792   1.806       .  S
S2791      H2794   1.406       .  S
S2792      H2793   1.407       .  S
C2797      C2798   1.409       .  A
C2797      C2802   1.415       .  A
C2798      C2799   1.405       .  A
C2798      H2807   1.081       .  S
C2799      C2800   1.425       .  A
C2799      S2803   1.791       .  S
C2800      C2801   1.430       .  A
C2801      C2802   1.429       .  A
C2801      H2808   1.074       .  S
C2802      S2804   1.796       .  S
S2803      H2806   1.407       .  S
S2804      H2805   1.406       .  S
C2809      C2810   1.406       .  A
C2809      C2814   1.432       .  A
C2810      C2811   1.398       .  A
C2810      H2819   1.084       .  S
C2811      C2812   1.406       .  A
C2811      S2815   1.795       .  S
C2812      C2813   1.389       .  A
C2813      C2814   1.398       .  A
C2813      H2820   1.082       .  S
C2814      S2816   1.815       .  S
S2815      H2818   1.409       .  S
S2816      H2817   1.407       .  S
C2821      C2822   1.386       .  A
C2821      C2826   1.410       .  A
C2822      C2823   1.379       .  A
C2822      H2831   1.085       .  S
C2823      C2824   1.408       .  A
C2823      S2827   1.800       .  S
C2824      C2825   1.391       .  A
C2825      C2826   1.387       .  A
C2825      H2832   1.083       .  S
C2826      S2828   1.802       .  S
S2827      H2830   1.407       .  S
S2828      H2829   1.406       .  S
C2833      C2834   1.402       .  A
C2833      C2838   1.399       .  A
C2834      C2835   1.389       .  A
C2834      H2843   1.084       .  S
C2835      C2836   1.399       .  A
C2835      S2839   1.802       .  S
C2836      C2837   1.399       .  A
C2837      C2838   1.379       .  A
C2837      H2844   1.085       .  S
C2838      S2840   1.802       .  S
S2839      H2842   1.407       .  S
S2840      H2841   1.405       .  S
C2845      C2846   1.406       .  A
C2845      C2850   1.399       .  A
C2846      C2847   1.379       .  A
C2846      H2855   1.082       .  S
C2847      C2848   1.398       .  A
C2847      S2851   1.805       .  S
C2848      C2849   1.404       .  A
C2849      C2850   1.372       .  A
C2849      H2856   1.086       .  S
C2850      S2852   1.807       .  S
S2851      H2854   1.403       .  S
S2852      H2853   1.408       .  S
