geometry optimzed in LAMMPS
_audit_creation_date              2020-12-01 
_audit_creation_method            'lammps2cif' 
_symmetry_space_group_name_H-M    'P1' 
_symmetry_Int_Tables_number       1 
_symmetry_cell_setting            triclinic 
loop_ 
_symmetry_equiv_pos_as_xyz 
  x,y,z 
_cell_length_a                    37.90487961 
_cell_length_b                    38.080074463183315 
_cell_length_c                    38.025500032743224 
_cell_angle_alpha                 89.9768612123823 
_cell_angle_beta                  89.9860611935933 
_cell_angle_gamma                 90.10159414888672 
loop_ 
_atom_site_label 
_atom_site_type_symbol 
_atom_site_fract_x 
_atom_site_fract_y 
_atom_site_fract_z 
_atom_site_charge 
C1          C  0.69538306  0.66702351  0.68841434     0.45600
H2          H  0.67706081  0.65042527  0.67276875    -0.03500
C3          C  0.73850120  0.70560261  0.72500754     0.45600
H4          H  0.75670240  0.72186461  0.74113413    -0.03500
C5          C  0.71946740  0.69073401  0.66585214    -0.17200
C6          C  0.67664479  0.69225897  0.71373831    -0.16900
C7          C  0.72090317  0.64564730  0.71118403    -0.17300
C8          C  0.74212936  0.71138567  0.68525454    -0.17300
C9          C  0.69938316  0.71277653  0.73285495    -0.16800
C10         C  0.74348613  0.66601464  0.73047168    -0.17200
C11         C  0.70197917  0.26136198  0.73034785     0.45600
H12         H  0.71753743  0.24255318  0.74642046    -0.03500
C13         C  0.66507527  0.30536167  0.69304419     0.45600
H14         H  0.64947102  0.32409742  0.67693997    -0.03500
C15         C  0.66199147  0.25600154  0.73322827    -0.17200
C16         C  0.70843187  0.30000419  0.74006276    -0.16900
C17         C  0.70996294  0.25940379  0.69101916    -0.17300
C18         C  0.64242205  0.27919857  0.71388725    -0.17300
C19         C  0.68890418  0.32309503  0.72040388    -0.16800
C20         C  0.69025773  0.28227368  0.67123446    -0.17200
C21         C  0.29661704  0.33601015  0.68533236     0.45600
H22         H  0.31376327  0.35456941  0.67055543    -0.03500
C23         C  0.25679732  0.29252376  0.72002399     0.45600
H24         H  0.23978690  0.27370480  0.73463359    -0.03500
C25         C  0.27291673  0.31344628  0.66163803    -0.17200
C26         C  0.31738119  0.30940923  0.70743535    -0.16900
C27         C  0.27173955  0.35398666  0.71158925    -0.17300
C28         C  0.25181364  0.29070436  0.68008792    -0.17300
C29         C  0.29632364  0.28633291  0.72558047    -0.16800
C30         C  0.25095237  0.33106237  0.73027894    -0.17200
C31         C  0.29196541  0.73657408  0.72021637     0.45600
H32         H  0.27650679  0.75400898  0.73786965    -0.03500
C33         C  0.32772143  0.69575828  0.67871284     0.45600
H34         H  0.34307258  0.67827410  0.66105977    -0.03500
C35         C  0.33205964  0.74105914  0.72356155    -0.17200
C36         C  0.28470379  0.69754669  0.72637943    -0.16900
C37         C  0.28414576  0.74249457  0.68123282    -0.17300
C38         C  0.35103236  0.71944492  0.70173684    -0.17300
C39         C  0.30359399  0.67588102  0.70454824    -0.16800
C40         C  0.30296978  0.72108542  0.65907304    -0.17200
C41         C  0.33580767  0.69710566  0.31296540     0.45600
H42         H  0.35569650  0.68464915  0.33042100    -0.03500
C43         C  0.28897686  0.72550765  0.27195530     0.45600
H44         H  0.26880210  0.73757398  0.25457023    -0.03500
C45         C  0.30799667  0.71875596  0.33270167    -0.17200
C46         C  0.35165925  0.72219654  0.28537440    -0.16900
C47         C  0.31446999  0.67036990  0.29137916    -0.17300
C48         C  0.28307284  0.73342957  0.31109053    -0.17300
C49         C  0.32681823  0.73753104  0.26396947    -0.16800
C50         C  0.29003317  0.68551432  0.26969332    -0.17200
C51         C  0.73802499  0.70752557  0.28032470     0.45600
H52         H  0.75593586  0.72290352  0.26300933    -0.03500
C53         C  0.69584142  0.67168153  0.32073071     0.45600
H54         H  0.67819070  0.65606948  0.33808485    -0.03500
C55         C  0.69912461  0.71789309  0.27682199    -0.17200
C56         C  0.73889997  0.66810769  0.27325378    -0.16900
C57         C  0.74636753  0.71137549  0.31950652    -0.17300
C58         C  0.67660532  0.69871260  0.29769277    -0.17300
C59         C  0.71686607  0.64909103  0.29462120    -0.16800
C60         C  0.72411637  0.69256050  0.34083033    -0.17200
C61         C  0.26987556  0.28857388  0.27591014     0.45600
H62         H  0.25251103  0.27148041  0.25970629    -0.03500
C63         C  0.31056939  0.32840899  0.31379631     0.45600
H64         H  0.32812558  0.34531617  0.32996594    -0.03500
C65         C  0.30902319  0.27994411  0.27201651    -0.17200
C66         C  0.26704407  0.32764978  0.26665275    -0.16900
C67         C  0.26234368  0.28627754  0.31540979    -0.17300
C68         C  0.33065885  0.30106277  0.29180152    -0.17300
C69         C  0.28828617  0.34883306  0.28692767    -0.16800
C70         C  0.28364500  0.30742218  0.33551681    -0.17200
C71         C  0.66978696  0.30259866  0.32650013     0.45600
H72         H  0.64966477  0.31562553  0.34326463    -0.03500
C73         C  0.71688217  0.27221940  0.28721295     0.45600
H74         H  0.73678054  0.25919982  0.27019287    -0.03500
C75         C  0.69474894  0.27845407  0.34702491    -0.17200
C76         C  0.65412419  0.27932546  0.29762284    -0.16900
C77         C  0.69423277  0.32842266  0.30710733    -0.17300
C78         C  0.71951750  0.26219621  0.32627941    -0.17300
C79         C  0.67882252  0.26360538  0.27666310    -0.16800
C80         C  0.71907280  0.31225217  0.28649554    -0.17200
O81         O  0.97101787  0.95727569  0.33748713    -0.74300
O82         O  0.03733924  0.03204600  0.32894156    -0.74400
O83         O  0.04184299  0.96187403  0.33641051    -0.74400
O84         O  0.96661385  0.02738619  0.32988491    -0.74500
O85         O  0.96656543  0.03382956  0.38814762    -0.74400
O86         O  0.04254094  0.96749694  0.39473849    -0.74400
O87         O  0.03799046  0.03846781  0.38718715    -0.74300
O88         O  0.97096654  0.96323039  0.39579364    -0.74400
Ni89       Ni  0.00421280  0.99440648  0.33120134     1.25400
Ni90       Ni  0.00458337  0.00097131  0.39363693     1.25400
C91         C  0.95982514  0.94797072  0.36786839     0.87900
C92         C  0.04839645  0.04789861  0.35649911     0.87800
C93         C  0.05458732  0.95364146  0.36644256     0.87800
C94         C  0.95416466  0.04154013  0.35773688     0.88000
O95         O  0.96456324  0.04203550  0.66263232    -0.74300
O96         O  0.03720009  0.97232309  0.66378060    -0.74400
O97         O  0.03577934  0.04263426  0.65789429    -0.74400
O98         O  0.96585080  0.97098243  0.66850354    -0.74500
O99         O  0.96224530  0.96521999  0.61030420    -0.74400
O100        O  0.03085085  0.03879350  0.59954889    -0.74400
O101        O  0.03356343  0.96751936  0.60543664    -0.74300
O102        O  0.95943074  0.03599970  0.60450837    -0.74400
Ni103      Ni  0.00092131  0.00716305  0.66525057     1.25400
Ni104      Ni  0.99643341  0.00173822  0.60283599     1.25400
C105        C  0.94984007  0.05031160  0.63345769     0.87900
C106        C  0.04750240  0.95857423  0.63482562     0.87800
C107        C  0.04478135  0.05256807  0.62701400     0.87800
C108        C  0.95267036  0.95600441  0.64129832     0.88000
O109        O  0.40629047  0.05247224  0.02885651    -0.74300
O110        O  0.40325295  0.98016350  0.95797881    -0.74400
O111        O  0.40384963  0.05174910  0.95735540    -0.74400
O112        O  0.40587987  0.98107537  0.02960258    -0.74500
O113        O  0.34714421  0.98209202  0.03174330    -0.74400
O114        O  0.34509408  0.05107496  0.95934360    -0.74400
O115        O  0.34455956  0.98050837  0.96109807    -0.74300
O116        O  0.34751846  0.05263374  0.02995548    -0.74400
Ni117      Ni  0.40703524  0.01632901  0.99334789     1.25400
Ni118      Ni  0.34411762  0.01657859  0.99559115     1.25400
C119        C  0.37710318  0.06449069  0.04098068     0.87900
C120        C  0.37311948  0.96839310  0.94798077     0.87800
C121        C  0.37391280  0.06305127  0.94649287     0.87800
C122        C  0.37668298  0.97016665  0.04276809     0.88000
O123        O  0.01427791  0.35559586  0.97163281    -0.74300
O124        O  0.94740517  0.35609184  0.04706490    -0.74400
O125        O  0.94328047  0.35348788  0.97639038    -0.74400
O126        O  0.01856784  0.35773673  0.04228105    -0.74500
O127        O  0.01675772  0.41621410  0.04159089    -0.74400
O128        O  0.94151604  0.41189139  0.97347228    -0.74400
O129        O  0.94477313  0.41450816  0.04463766    -0.74300
O130        O  0.01324635  0.41408334  0.97030244    -0.74400
Ni131      Ni  0.98092468  0.35373303  0.00944364     1.25400
Ni132      Ni  0.97903076  0.41633145  0.00746707     1.25400
C133        C  0.02501569  0.38477628  0.95862908     0.87900
C134        C  0.93460529  0.38527026  0.05794662     0.87800
C135        C  0.92992780  0.38167935  0.96388539     0.87800
C136        C  0.03040749  0.38742925  0.05270567     0.88000
O137        O  0.59949389  0.01930403  0.97101863    -0.74300
O138        O  0.61660714  0.95027273  0.04210084    -0.74400
O139        O  0.60733288  0.02076886  0.04148318    -0.74400
O140        O  0.60861438  0.94851651  0.97127561    -0.74500
O141        O  0.66655564  0.95615688  0.96485804    -0.74400
O142        O  0.66531225  0.02816084  0.03495937    -0.74400
O143        O  0.67451432  0.95799722  0.03522619    -0.74300
O144        O  0.65754621  0.02642997  0.96457108    -0.74400
Ni145      Ni  0.60590598  0.98440401  0.00668140     1.25400
Ni146      Ni  0.66800668  0.99243724  0.99964900     1.25400
C147        C  0.62585085  0.03445133  0.95632837     0.87900
C148        C  0.64849966  0.94289948  0.05044303     0.87800
C149        C  0.63609308  0.03649263  0.04969250     0.87800
C150        C  0.63790006  0.94027089  0.95658190     0.88000
O151        O  0.04578418  0.66360971  0.04133893    -0.74300
O152        O  0.97873107  0.65956306  0.96732295    -0.74400
O153        O  0.97473499  0.65655167  0.03814326    -0.74400
O154        O  0.04908944  0.66600892  0.97036654    -0.74500
O155        O  0.05524204  0.60776266  0.96917622    -0.74400
O156        O  0.98049194  0.59832598  0.03658183    -0.74400
O157        O  0.98385493  0.60128983  0.96499489    -0.74300
O158        O  0.05174021  0.60540691  0.04025355    -0.74400
Ni159      Ni  0.01185416  0.66342358  0.00447419     1.25400
Ni160      Ni  0.01795175  0.60104243  0.00271606     1.25400
C161        C  0.06037483  0.63553850  0.05268503     0.87900
C162        C  0.97073952  0.63010441  0.95333475     0.87800
C163        C  0.96529167  0.62589148  0.04851060     0.87800
C164        C  0.06430633  0.63840862  0.95852228     0.88000
C165        C  0.67081061  0.24097541  0.24615674    -0.03100
C166        C  0.68711347  0.24785416  0.21381058    -0.05700
C167        C  0.68214720  0.22519325  0.18541112    -0.20800
C168        C  0.66081872  0.19523323  0.18884112     0.25000
C169        C  0.64412142  0.18858934  0.22127499    -0.18300
C170        C  0.64911355  0.21132991  0.24968330    -0.08300
C171        C  0.65936527  0.17001210  0.15917743    -0.18600
C172        C  0.63365262  0.14596516  0.15506320    -0.23400
C173        C  0.63480049  0.11875877  0.12719928     0.27000
C174        C  0.60311280  0.10432497  0.11476745    -0.20200
C175        C  0.60345754  0.07766415  0.08950018    -0.09800
C176        C  0.63558889  0.06472257  0.07639060    -0.10300
C177        C  0.66732243  0.07901458  0.08905406    -0.03300
C178        C  0.66696552  0.10562621  0.11428447    -0.18400
H179        H  0.70408592  0.27056361  0.21068120     0.10700
H180        H  0.69553272  0.23073502  0.16084682     0.10800
H181        H  0.62849049  0.16516090  0.22537051     0.10400
H182        H  0.63721271  0.20496492  0.27476482     0.11500
H183        H  0.68040059  0.17153965  0.13983902     0.11600
H184        H  0.61068956  0.14644547  0.17210794     0.13500
H185        H  0.57803077  0.11377014  0.12457935     0.10100
H186        H  0.57855179  0.06721348  0.08023519     0.12200
H187        H  0.69251562  0.06934826  0.07978594     0.08800
H188        H  0.69194691  0.11520106  0.12419365     0.11500
C189        C  0.74565682  0.33026461  0.26455647    -0.03100
C190        C  0.78117444  0.32890481  0.27436299    -0.05700
C191        C  0.80731495  0.34081273  0.25147614    -0.20800
C192        C  0.79844820  0.35450883  0.21837432     0.25000
C193        C  0.76252316  0.35739448  0.20919627    -0.18300
C194        C  0.73629887  0.34531097  0.23224590    -0.08300
C195        C  0.82757855  0.36156057  0.19320823    -0.18600
C196        C  0.82456054  0.38050062  0.16346651    -0.23400
C197        C  0.85368732  0.38223535  0.13737353     0.27000
C198        C  0.85849669  0.41254690  0.11690595    -0.20200
C199        C  0.88537929  0.41402974  0.09161615    -0.09800
C200        C  0.90737910  0.38486408  0.08585500    -0.10300
C201        C  0.90223413  0.35447127  0.10612130    -0.03300
C202        C  0.87576255  0.35315442  0.13156436    -0.18400
H203        H  0.78870650  0.31808955  0.29956023     0.10700
H204        H  0.83469150  0.33833411  0.25926261     0.10800
H205        H  0.75459782  0.36717846  0.18370617     0.10400
H206        H  0.70888677  0.34620625  0.22425346     0.11500
H207        H  0.85298382  0.34991972  0.19940816     0.11600
H208        H  0.80067334  0.39521970  0.15811740     0.13500
H209        H  0.84152420  0.43510520  0.12059106     0.10100
H210        H  0.88847508  0.43769074  0.07610212     0.12200
H211        H  0.91856372  0.33149910  0.10216477     0.08800
H212        H  0.87206491  0.32893682  0.14602132     0.11500
C213        C  0.74591314  0.23638326  0.33866805    -0.03100
C214        C  0.73652914  0.20882698  0.36143390    -0.05700
C215        C  0.76118972  0.18299112  0.37025519    -0.20800
C216        C  0.79531486  0.18404064  0.35599555     0.25000
C217        C  0.80491653  0.21234715  0.33424744    -0.18300
C218        C  0.78034296  0.23793372  0.32540396    -0.08300
C219        C  0.82041405  0.15527911  0.36368893    -0.18600
C220        C  0.84529481  0.14578676  0.34033507    -0.23400
C221        C  0.87169240  0.11780140  0.34618215     0.27000
C222        C  0.88990272  0.10499434  0.31680870    -0.20200
C223        C  0.91631062  0.07996955  0.32069410    -0.09800
C224        C  0.92540083  0.06734079  0.35418124    -0.10300
C225        C  0.90717844  0.07999156  0.38373333    -0.03300
C226        C  0.88050657  0.10504799  0.37981147    -0.18400
H227        H  0.70987860  0.20656693  0.37142002     0.10700
H228        H  0.75328454  0.16155241  0.38726410     0.10800
H229        H  0.83138810  0.21482695  0.32387262     0.10400
H230        H  0.78829569  0.25875489  0.30782691     0.11500
H231        H  0.81700433  0.14071123  0.38796991     0.11600
H232        H  0.84582723  0.15849122  0.31476341     0.13500
H233        H  0.88383472  0.11456994  0.29066434     0.10100
H234        H  0.92996321  0.07090679  0.29738778     0.12200
H235        H  0.91370066  0.07073984  0.40986460     0.08800
H236        H  0.86765301  0.11486965  0.40319264     0.11500
C237        C  0.36958318  0.29957885  0.29085097    -0.03100
C238        C  0.38901650  0.33030694  0.28475269    -0.05700
C239        C  0.42561403  0.32877961  0.28090495    -0.20800
C240        C  0.44343036  0.29657307  0.28339774     0.25000
C241        C  0.42375587  0.26578730  0.28975582    -0.18300
C242        C  0.38724971  0.26742707  0.29393604    -0.08300
C243        C  0.48235964  0.29634811  0.27914317    -0.18600
C244        C  0.50301410  0.26996800  0.29049046    -0.23400
C245        C  0.54204521  0.27141824  0.28974936     0.27000
C246        C  0.56068753  0.25086122  0.31405764    -0.20200
C247        C  0.59732237  0.25295862  0.31602361    -0.09800
C248        C  0.61586857  0.27528717  0.29341149    -0.10300
C249        C  0.59773338  0.29483772  0.26807591    -0.03300
C250        C  0.56096841  0.29286065  0.26609709    -0.18400
H251        H  0.37577117  0.35534807  0.28201985     0.10700
H252        H  0.44005512  0.35284339  0.27589195     0.10800
H253        H  0.43605959  0.24024985  0.29089558     0.10400
H254        H  0.37267733  0.24343814  0.29887923     0.11500
H255        H  0.49444887  0.31995317  0.26858558     0.11600
H256        H  0.49132203  0.24767234  0.30386872     0.13500
H257        H  0.54679857  0.23377178  0.33218111     0.10100
H258        H  0.61122025  0.23716779  0.33517386     0.12200
H259        H  0.61199936  0.31199443  0.25031180     0.08800
H260        H  0.54762588  0.30812352  0.24616144     0.11500
C261        C  0.24400805  0.33932749  0.23754595    -0.03100
C262        C  0.24654977  0.32245864  0.20492626    -0.05700
C263        C  0.22328163  0.33078509  0.17781150    -0.20800
C264        C  0.19673564  0.35598805  0.18272930     0.25000
C265        C  0.19452461  0.37331136  0.21545673    -0.18300
C266        C  0.21808569  0.36504680  0.24259901    -0.08300
C267        C  0.17069898  0.36098295  0.15386870    -0.18600
C268        C  0.14519369  0.38561825  0.15334906    -0.23400
C269        C  0.11703931  0.38628512  0.12608041     0.27000
C270        C  0.09891725  0.41772490  0.11922581    -0.20200
C271        C  0.07101531  0.41854009  0.09502026    -0.09800
C272        C  0.06043329  0.38772884  0.07762272    -0.10300
C273        C  0.07863298  0.35634944  0.08451073    -0.03300
C274        C  0.10641861  0.35556036  0.10846693    -0.18400
H275        H  0.26637805  0.30246149  0.20056393     0.10700
H276        H  0.22557791  0.31685500  0.15307898     0.10800
H277        H  0.17416809  0.39237568  0.22081146     0.10400
H278        H  0.21538249  0.37788694  0.26786320     0.11500
H279        H  0.17254757  0.34280431  0.13197701     0.11600
H280        H  0.14451453  0.40593154  0.17327676     0.13500
H281        H  0.10628070  0.44166840  0.13275048     0.10100
H282        H  0.05742029  0.44308733  0.09035013     0.12200
H283        H  0.07118255  0.33209081  0.07161497     0.08800
H284        H  0.11864219  0.33048880  0.11381895     0.11500
C285        C  0.32079524  0.25209898  0.24760081    -0.03100
C286        C  0.30543492  0.21873176  0.24994697    -0.05700
C287        C  0.31426503  0.19264858  0.22582048    -0.20800
C288        C  0.33865944  0.19937547  0.19887462     0.25000
C289        C  0.35437033  0.23283953  0.19667027    -0.18300
C290        C  0.34536674  0.25905035  0.22083875    -0.08300
C291        C  0.34416865  0.17182858  0.17193505    -0.18600
C292        C  0.37199905  0.17029451  0.14997365    -0.23400
C293        C  0.37370301  0.14366055  0.12156261     0.27000
C294        C  0.40632277  0.12992786  0.11077044    -0.20200
C295        C  0.40784869  0.10425238  0.08435607    -0.09800
C296        C  0.37672400  0.09228989  0.06814540    -0.10300
C297        C  0.34431091  0.10693159  0.07837486    -0.03300
C298        C  0.34282402  0.13235803  0.10456000    -0.18400
H299        H  0.28627405  0.21297987  0.27031358     0.10700
H300        H  0.30153428  0.16723543  0.22787627     0.10800
H301        H  0.37245409  0.23932313  0.17563354     0.10400
H302        H  0.35683064  0.28497689  0.21810230     0.11500
H303        H  0.32410892  0.15147189  0.17033904     0.11600
H304        H  0.39414340  0.18809454  0.15323362     0.13500
H305        H  0.43050987  0.13862174  0.12320811     0.10100
H306        H  0.43322671  0.09357351  0.07689601     0.12200
H307        H  0.31984939  0.09878423  0.06610901     0.08800
H308        H  0.31737876  0.14340181  0.11117452     0.11500
C309        C  0.23531624  0.26195826  0.32930920    -0.03100
C310        C  0.24339584  0.23834762  0.35648064    -0.05700
C311        C  0.21847514  0.21359659  0.36744604    -0.20800
C312        C  0.18544693  0.21165851  0.35093896     0.25000
C313        C  0.17693496  0.23632951  0.32472369    -0.18300
C314        C  0.20180228  0.26107932  0.31385027    -0.08300
C315        C  0.16105056  0.18273968  0.36040962    -0.18600
C316        C  0.13967395  0.16793881  0.33637019    -0.23400
C317        C  0.11726609  0.13673695  0.34310260     0.27000
C318        C  0.10565326  0.11725998  0.31405502    -0.20200
C319        C  0.08388187  0.08810900  0.31858407    -0.09800
C320        C  0.07293062  0.07784206  0.35236170    -0.10300
C321        C  0.08460774  0.09721600  0.38159655    -0.03300
C322        C  0.10653928  0.12648092  0.37704359    -0.18400
H323        H  0.26931115  0.23836545  0.36846289     0.10700
H324        H  0.22550672  0.19500703  0.38783133     0.10800
H325        H  0.15122932  0.23636136  0.31234426     0.10400
H326        H  0.19498707  0.27940969  0.29314891     0.11500
H327        H  0.16339512  0.17136171  0.38646086     0.11600
H328        H  0.14036480  0.17759623  0.30949631     0.13500
H329        H  0.11344392  0.12464584  0.28764424     0.10100
H330        H  0.07533408  0.07384223  0.29546701     0.12200
H331        H  0.07637920  0.09010117  0.40792850     0.08800
H332        H  0.11425840  0.14131608  0.40003533     0.11500
C333        C  0.71454068  0.61051054  0.29456182    -0.03100
C334        C  0.74529023  0.59040108  0.29741733    -0.05700
C335        C  0.74332787  0.55395766  0.29805289    -0.20800
C336        C  0.71054918  0.53697637  0.29683918     0.25000
C337        C  0.67955147  0.55710518  0.29437778    -0.18300
C338        C  0.68160599  0.59375133  0.29337969    -0.08300
C339        C  0.71029790  0.49828221  0.29775928    -0.18600
C340        C  0.68367768  0.47898715  0.31091993    -0.23400
C341        C  0.68616903  0.44031584  0.31305119     0.27000
C342        C  0.65568349  0.41980198  0.30898552    -0.20200
C343        C  0.65815088  0.38318838  0.30786673    -0.09800
C344        C  0.69111764  0.36681379  0.31104176    -0.10300
C345        C  0.72114750  0.38721710  0.31772794    -0.03300
C346        C  0.71875584  0.42363209  0.31870212    -0.18400
H347        H  0.77081658  0.60285357  0.29993388     0.10700
H348        H  0.76749648  0.53895483  0.30021789     0.10800
H349        H  0.65390067  0.54472929  0.29266056     0.10400
H350        H  0.65759749  0.60901990  0.29138086     0.11500
H351        H  0.73397625  0.48525291  0.28841030     0.11600
H352        H  0.65951845  0.49144817  0.31974134     0.13500
H353        H  0.63021228  0.43214291  0.30538388     0.10100
H354        H  0.63456492  0.36774079  0.30332771     0.12200
H355        H  0.74652484  0.37500060  0.32210657     0.08800
H356        H  0.74247553  0.43861442  0.32389121     0.11500
C357        C  0.76044296  0.65358195  0.24443213    -0.03100
C358        C  0.74585448  0.64990926  0.21080444    -0.05700
C359        C  0.76740768  0.64136756  0.18220179    -0.20800
C360        C  0.80372467  0.63582051  0.18694246     0.25000
C361        C  0.81800340  0.63845424  0.22101913    -0.18300
C362        C  0.79654331  0.64767586  0.24942735    -0.08300
C363        C  0.82667539  0.63179311  0.15557904    -0.18600
C364        C  0.85812793  0.61545094  0.15636417    -0.23400
C365        C  0.88352298  0.61716693  0.12669214     0.27000
C366        C  0.90726819  0.58945691  0.12129854    -0.20200
C367        C  0.93329428  0.59182340  0.09524952    -0.09800
C368        C  0.93661909  0.62239269  0.07474078    -0.10300
C369        C  0.91278705  0.65007115  0.08012639    -0.03300
C370        C  0.88641682  0.64744338  0.10567921    -0.18400
H371        H  0.71809618  0.65509494  0.20649696     0.10700
H372        H  0.75589692  0.64000785  0.15616466     0.10800
H373        H  0.84601397  0.63540188  0.22551734     0.10400
H374        H  0.80825993  0.65110715  0.27516977     0.11500
H375        H  0.81762377  0.64349262  0.13113585     0.11600
H376        H  0.86582849  0.60071751  0.17957968     0.13500
H377        H  0.90581943  0.56605657  0.13745049     0.10100
H378        H  0.95141400  0.57013607  0.09181501     0.12200
H379        H  0.91469009  0.67393769  0.06473692     0.08800
H380        H  0.86918197  0.66969606  0.10980439     0.11500
C381        C  0.65575799  0.91674340  0.07798833    -0.03100
C382        C  0.69069065  0.90673901  0.08498470    -0.05700
C383        C  0.69796782  0.88201310  0.11088534    -0.20800
C384        C  0.67060035  0.86690259  0.13050163     0.25000
C385        C  0.63552154  0.87676881  0.12352213    -0.18300
C386        C  0.62820945  0.90157589  0.09748923    -0.08300
C387        C  0.67992738  0.83958744  0.15640901    -0.18600
C388        C  0.65853841  0.82877006  0.18241482    -0.23400
C389        C  0.66894271  0.80017106  0.20647193     0.27000
C390        C  0.65596130  0.79988702  0.24099607    -0.20200
C391        C  0.66590680  0.77329244  0.26422274    -0.09800
C392        C  0.68833272  0.74628801  0.25285893    -0.10300
C393        C  0.70103114  0.74637152  0.21833135    -0.03300
C394        C  0.69121709  0.77287945  0.19520269    -0.18400
H395        H  0.71250790  0.91783934  0.07029788     0.10700
H396        H  0.72515152  0.87457353  0.11553696     0.10800
H397        H  0.61360685  0.86494772  0.13737539     0.10400
H398        H  0.60101887  0.90871270  0.09251758     0.11500
H399        H  0.70623503  0.82850797  0.15438827     0.11600
H400        H  0.63361972  0.84187613  0.18724307     0.13500
H401        H  0.63858844  0.82053013  0.25010588     0.10100
H402        H  0.65622650  0.77381332  0.29101538     0.12200
H403        H  0.71808912  0.72555047  0.20905800     0.08800
H404        H  0.70065074  0.77152876  0.16838323     0.11500
C405        C  0.77558533  0.73405478  0.33181570    -0.03100
C406        C  0.80845425  0.73205740  0.31517247    -0.05700
C407        C  0.83529615  0.75548716  0.32395906    -0.20800
C408        C  0.82977813  0.78172175  0.34929522     0.25000
C409        C  0.79704016  0.78303427  0.36682997    -0.18300
C410        C  0.77017797  0.75938456  0.35805371    -0.08300
C411        C  0.85807555  0.80830698  0.35410872    -0.18600
C412        C  0.85588237  0.83697208  0.37471907    -0.23400
C413        C  0.88301513  0.86499446  0.37321805     0.27000
C414        C  0.89106000  0.88459650  0.40341485    -0.20200
C415        C  0.91641388  0.91137615  0.40204437    -0.09800
C416        C  0.93358796  0.91932977  0.37022365    -0.10300
C417        C  0.92491350  0.90008394  0.33994240    -0.03300
C418        C  0.89988634  0.87334944  0.34137235    -0.18400
H419        H  0.81319294  0.71274272  0.29485453     0.10700
H420        H  0.86016414  0.75378129  0.31001071     0.10800
H421        H  0.79144994  0.80265467  0.38652960     0.10400
H422        H  0.74475327  0.76177482  0.37080550     0.11500
H423        H  0.88169103  0.80484250  0.33828749     0.11600
H424        H  0.83403490  0.84057809  0.39270590     0.13500
H425        H  0.87794215  0.87896423  0.42809686     0.10100
H426        H  0.92230458  0.92602831  0.42573249     0.12200
H427        H  0.93735776  0.90575481  0.31493129     0.08800
H428        H  0.89329568  0.85973993  0.31726172     0.11500
C429        C  0.31933948  0.63209320  0.29453285    -0.03100
C430        C  0.31647985  0.61581837  0.32744510    -0.05700
C431        C  0.31710155  0.57920831  0.32997150    -0.20800
C432        C  0.32051158  0.55848047  0.29962730     0.25000
C433        C  0.32566080  0.57505970  0.26694923    -0.18300
C434        C  0.32497940  0.61158162  0.26446996    -0.08300
C435        C  0.31796304  0.51979043  0.30289875    -0.18600
C436        C  0.30568198  0.49921933  0.27678765    -0.23400
C437        C  0.30097559  0.46070407  0.28007542     0.27000
C438        C  0.30006206  0.44029537  0.24933807    -0.20200
C439        C  0.29560753  0.40391854  0.25124297    -0.09800
C440        C  0.29124022  0.38744809  0.28395660    -0.10300
C441        C  0.29158705  0.40782580  0.31465196    -0.03300
C442        C  0.29625464  0.44411527  0.31280916    -0.18400
H443        H  0.31235369  0.63137024  0.35093833     0.10700
H444        H  0.31362974  0.56702238  0.35549008     0.10800
H445        H  0.33006292  0.56000064  0.24324504     0.10400
H446        H  0.32835123  0.62385395  0.23899189     0.11500
H447        H  0.32492867  0.50839432  0.32809448     0.11600
H448        H  0.29855952  0.51088620  0.25174011     0.13500
H449        H  0.30340640  0.45248550  0.22380355     0.10100
H450        H  0.29625340  0.38865247  0.22724523     0.12200
H451        H  0.28797615  0.39563562  0.34015469     0.08800
H452        H  0.29548792  0.45895023  0.33702539     0.11500
C453        C  0.39034368  0.72540467  0.28077914    -0.03100
C454        C  0.40618959  0.71956859  0.24790335    -0.05700
C455        C  0.44299035  0.71933002  0.24469913    -0.20800
C456        C  0.46447683  0.72454065  0.27434095     0.25000
C457        C  0.44838233  0.73186194  0.30686674    -0.18300
C458        C  0.41176377  0.73176913  0.31005148    -0.08300
C459        C  0.50343614  0.72183823  0.27075379    -0.18600
C460        C  0.52428220  0.71217792  0.29780949    -0.23400
C461        C  0.56329637  0.70870504  0.29618138     0.27000
C462        C  0.58173666  0.70552638  0.32803588    -0.20200
C463        C  0.61833985  0.70182651  0.32838718    -0.09800
C464        C  0.63748205  0.70151611  0.29690415    -0.10300
C465        C  0.61906308  0.70345864  0.26486464    -0.03300
C466        C  0.58236021  0.70728044  0.26443195    -0.18400
H467        H  0.39014643  0.71409345  0.22498166     0.10700
H468        H  0.45469609  0.71398377  0.21927489     0.10800
H469        H  0.46386740  0.73763179  0.33004049     0.10400
H470        H  0.40025544  0.73648218  0.33552869     0.11500
H471        H  0.51465416  0.72686691  0.24502277     0.11600
H472        H  0.51223294  0.70622655  0.32300212     0.13500
H473        H  0.56775640  0.70605805  0.35288779     0.10100
H474        H  0.63161019  0.69960639  0.35336492     0.12200
H475        H  0.63304942  0.70183999  0.24009213     0.08800
H476        H  0.56927638  0.70843743  0.23922838     0.11500
C477        C  0.08831658  0.63872169  0.07960933    -0.03100
C478        C  0.10136581  0.67217200  0.08833940    -0.05700
C479        C  0.12934854  0.67584785  0.11172539    -0.20800
C480        C  0.14455638  0.64631422  0.12748549     0.25000
C481        C  0.13126919  0.61275359  0.11945554    -0.18300
C482        C  0.10341291  0.60898517  0.09551617    -0.08300
C483        C  0.17545029  0.65175300  0.15050994    -0.18600
C484        C  0.18340617  0.63113755  0.17807157    -0.23400
C485        C  0.21317749  0.64023460  0.20153430     0.27000
C486        C  0.20934619  0.63689096  0.23809969    -0.20200
C487        C  0.23533964  0.65012192  0.26065322    -0.09800
C488        C  0.26549944  0.66628432  0.24671173    -0.10300
C489        C  0.27050186  0.66737878  0.21030634    -0.03300
C490        C  0.24459003  0.65438569  0.18781877    -0.18400
H491        H  0.09052215  0.69564034  0.07645701     0.10700
H492        H  0.13928862  0.70193259  0.11742252     0.10800
H493        H  0.14303687  0.58945477  0.13074252     0.10400
H494        H  0.09404238  0.58287957  0.08912074     0.11500
H495        H  0.19094009  0.67539090  0.14600381     0.11600
H496        H  0.16603228  0.60963689  0.18539200     0.13500
H497        H  0.18546088  0.62580503  0.24916047     0.10100
H498        H  0.23126949  0.64918324  0.28883658     0.12200
H499        H  0.29415048  0.67895666  0.19931459     0.08800
H500        H  0.24872065  0.65620258  0.15969691     0.11500
C501        C  0.33429472  0.76350403  0.23581435    -0.03100
C502        C  0.31636384  0.76119564  0.20364769    -0.05700
C503        C  0.32148067  0.78647875  0.17763275    -0.20800
C504        C  0.34459291  0.81471450  0.18316825     0.25000
C505        C  0.36253148  0.81724173  0.21548451    -0.18300
C506        C  0.35735882  0.79182887  0.24158539    -0.08300
C507        C  0.34717666  0.84200716  0.15549451    -0.18600
C508        C  0.37433517  0.86459134  0.15217965    -0.23400
C509        C  0.37485016  0.89205298  0.12450754     0.27000
C510        C  0.40717468  0.90352323  0.11057321    -0.20200
C511        C  0.40804401  0.92893726  0.08393899    -0.09800
C512        C  0.37653274  0.94355467  0.07111495    -0.10300
C513        C  0.34430690  0.93266726  0.08582371    -0.03300
C514        C  0.34346250  0.90737878  0.11227491    -0.18400
H515        H  0.29809708  0.73998377  0.19860956     0.10700
H516        H  0.30703753  0.78413099  0.15315656     0.10800
H517        H  0.37960722  0.83929121  0.22119854     0.10400
H518        H  0.37059649  0.79485294  0.26663197     0.11500
H519        H  0.32604319  0.84268795  0.13622128     0.11600
H520        H  0.39735833  0.86204723  0.16893706     0.13500
H521        H  0.43172442  0.89240307  0.11993205     0.10100
H522        H  0.43330240  0.93700506  0.07332747     0.12200
H523        H  0.31955843  0.94374487  0.07696793     0.08800
H524        H  0.31815371  0.90023385  0.12336887     0.11500
C525        C  0.25256555  0.75448927  0.32300808    -0.03100
C526        C  0.21921242  0.74818886  0.30837270    -0.05700
C527        C  0.19083591  0.76993076  0.31659887    -0.20800
C528        C  0.19518831  0.79831624  0.33971536     0.25000
C529        C  0.22846838  0.80408104  0.35512986    -0.18300
C530        C  0.25691499  0.78234040  0.34675741    -0.08300
C531        C  0.16554880  0.82328214  0.34380906    -0.18600
C532        C  0.16328011  0.84755591  0.36942754    -0.23400
C533        C  0.13569461  0.87503726  0.36882947     0.27000
C534        C  0.12244552  0.88870864  0.40044547    -0.20200
C535        C  0.09622954  0.91460191  0.39999450    -0.09800
C536        C  0.08325502  0.92744307  0.36783497    -0.10300
C537        C  0.09745943  0.91444878  0.33630737    -0.03300
C538        C  0.12341944  0.88869805  0.33678142    -0.18400
H539        H  0.21524094  0.72676499  0.29005203     0.10700
H540        H  0.16557764  0.76507257  0.30416578     0.10800
H541        H  0.23321595  0.82624583  0.37224544     0.10400
H542        H  0.28262637  0.78824560  0.35765948     0.11500
H543        H  0.14478276  0.82196779  0.32415187     0.11600
H544        H  0.18158644  0.84731850  0.39134631     0.13500
H545        H  0.13198236  0.87893759  0.42544616     0.10100
H546        H  0.08590633  0.92426667  0.42471104     0.12200
H547        H  0.08849142  0.92412576  0.31106641     0.08800
H548        H  0.13414278  0.87985178  0.31193709     0.11500
C549        C  0.30791566  0.72128415  0.37146953    -0.03100
C550        C  0.33642330  0.73697939  0.38872470    -0.05700
C551        C  0.33738857  0.73849826  0.42534763    -0.20800
C552        C  0.30982492  0.72435996  0.44560028     0.25000
C553        C  0.28083583  0.70893866  0.42806885    -0.18300
C554        C  0.27995695  0.70750941  0.39128115    -0.08300
C555        C  0.31317924  0.72611438  0.48461390    -0.18600
C556        C  0.28870573  0.71462677  0.50760735    -0.23400
C557        C  0.29327380  0.71700674  0.54635157     0.27000
C558        C  0.26309552  0.71821578  0.56768085    -0.20200
C559        C  0.26614251  0.72003974  0.60424178    -0.09800
C560        C  0.29950046  0.72061437  0.62023992    -0.10300
C561        C  0.32974638  0.71869275  0.59907592    -0.03300
C562        C  0.32673951  0.71689653  0.56246938    -0.18400
H563        H  0.35770041  0.74860586  0.37388769     0.10700
H564        H  0.35990967  0.75075436  0.43791425     0.10800
H565        H  0.25892992  0.69758837  0.44221958     0.10400
H566        H  0.25771742  0.69523093  0.37825220     0.11500
H567        H  0.33703190  0.73818584  0.49481235     0.11600
H568        H  0.26375605  0.70437276  0.49828183     0.13500
H569        H  0.23703661  0.71773421  0.55599689     0.10100
H570        H  0.24237502  0.72018412  0.62000920     0.12200
H571        H  0.35575030  0.71859024  0.61089076     0.08800
H572        H  0.35062434  0.71468120  0.54707127     0.11500
C573        C  0.25713552  0.68608349  0.75149647    -0.03100
C574        C  0.22687025  0.66839636  0.73967719    -0.05700
C575        C  0.19935326  0.66075280  0.76307672    -0.20800
C576        C  0.20207411  0.66993509  0.79874631     0.25000
C577        C  0.23259721  0.68740658  0.81049763    -0.18300
C578        C  0.25969560  0.69572247  0.78695723    -0.08300
C579        C  0.17198877  0.66313104  0.82282455    -0.18600
C580        C  0.17655732  0.65441223  0.85683641    -0.23400
C581        C  0.14673443  0.64949479  0.88165080     0.27000
C582        C  0.14950181  0.62438492  0.90854478    -0.20200
C583        C  0.12234826  0.62022751  0.93316957    -0.09800
C584        C  0.09253643  0.64201560  0.93204007    -0.10300
C585        C  0.08994648  0.66748644  0.90547119    -0.03300
C586        C  0.11660689  0.67094993  0.88023843    -0.18400
H587        H  0.22414016  0.66147514  0.71218240     0.10700
H588        H  0.17587895  0.64773368  0.75334037     0.10800
H589        H  0.23502485  0.69570448  0.83761711     0.10400
H590        H  0.28259653  0.70997817  0.79632270     0.11500
H591        H  0.14548322  0.66435269  0.81202397     0.11600
H592        H  0.20304116  0.64965430  0.86665065     0.13500
H593        H  0.17265968  0.60785528  0.91037345     0.10100
H594        H  0.12499675  0.60057117  0.95359490     0.12600
H595        H  0.06713856  0.68453194  0.90408858     0.08800
H596        H  0.11410135  0.69106475  0.86027108     0.11500
C597        C  0.25876195  0.76961827  0.67033270    -0.03100
C598        C  0.27044877  0.80073127  0.65443849    -0.05700
C599        C  0.24672438  0.82818622  0.64833662    -0.20800
C600        C  0.21096008  0.82441378  0.65721299     0.25000
C601        C  0.19932769  0.79291040  0.67266821    -0.18300
C602        C  0.22318578  0.76589729  0.67955167    -0.08300
C603        C  0.18653432  0.85429066  0.65232168    -0.18600
C604        C  0.15295779  0.84968110  0.64191089    -0.23400
C605        C  0.12761670  0.87905780  0.63906922     0.27000
C606        C  0.10229743  0.87872053  0.61218073    -0.20200
C607        C  0.07687202  0.90522193  0.61008916    -0.09800
C608        C  0.07566438  0.93185290  0.63559063    -0.10300
C609        C  0.10093766  0.93209404  0.66261434    -0.03300
C610        C  0.12690379  0.90612142  0.66416714    -0.18400
H611        H  0.29806849  0.80417056  0.64794923     0.10700
H612        H  0.25626875  0.85243466  0.63683603     0.10800
H613        H  0.17208329  0.78967597  0.68061990     0.10400
H614        H  0.21404525  0.74223222  0.69253155     0.11500
H615        H  0.19665279  0.88068020  0.65648388     0.11600
H616        H  0.14397641  0.82365521  0.63429121     0.13500
H617        H  0.10221124  0.85788753  0.59278948     0.10100
H618        H  0.05751529  0.90431366  0.58916121     0.12200
H619        H  0.10055722  0.95235052  0.68260067     0.08800
H620        H  0.14567805  0.90657505  0.68562234     0.11500
C621        C  0.34723342  0.76787857  0.74726172    -0.03100
C622        C  0.37438361  0.75977328  0.77103298    -0.05700
C623        C  0.38629913  0.78510957  0.79493761    -0.20800
C624        C  0.37077349  0.81853443  0.79574455     0.25000
C625        C  0.34478873  0.82695493  0.77073702    -0.18300
C626        C  0.33300487  0.80177936  0.74694151    -0.08300
C627        C  0.38061411  0.84377247  0.82377311    -0.18600
C628        C  0.35624358  0.86511789  0.83798768    -0.23400
C629        C  0.36269881  0.88999812  0.86721212     0.27000
C630        C  0.33328260  0.90209031  0.88586418    -0.20200
C631        C  0.33704010  0.92695915  0.91235564    -0.09800
C632        C  0.37040431  0.94068725  0.92082570    -0.10300
C633        C  0.40014361  0.92833981  0.90252229    -0.03300
C634        C  0.39634692  0.90317852  0.87582779    -0.18400
H635        H  0.38557581  0.73364312  0.77180554     0.10700
H636        H  0.40656882  0.77817127  0.81375901     0.10800
H637        H  0.33322513  0.85290749  0.76976361     0.10400
H638        H  0.31250251  0.80873467  0.72836386     0.11500
H639        H  0.40707479  0.84266228  0.83459230     0.11600
H640        H  0.32913700  0.86302250  0.82891236     0.13500
H641        H  0.30708683  0.89242140  0.87974234     0.10100
H642        H  0.31353738  0.93570534  0.92594995     0.12200
H643        H  0.42616269  0.93856136  0.90837147     0.08800
H644        H  0.41954521  0.89492773  0.86150047     0.11500
C645        C  0.27653251  0.31335936  0.62282086    -0.03100
C646        C  0.31020236  0.31190335  0.60764207    -0.05700
C647        C  0.31407254  0.31017756  0.57116794    -0.20800
C648        C  0.28442192  0.31048570  0.54907833     0.25000
C649        C  0.25058718  0.31217836  0.56434376    -0.18300
C650        C  0.24674273  0.31367755  0.60091256    -0.08300
C651        C  0.29004008  0.30772939  0.51049543    -0.18600
C652        C  0.26687778  0.31961931  0.48642709    -0.23400
C653        C  0.27245561  0.31707620  0.44775649     0.27000
C654        C  0.24306361  0.32050487  0.42558247    -0.20200
C655        C  0.24676978  0.31795745  0.38914434    -0.09800
C656        C  0.27998551  0.31177260  0.37408223    -0.10300
C657        C  0.30965063  0.30960911  0.39592670    -0.03300
C658        C  0.30600240  0.31219236  0.43245759    -0.18400
H659        H  0.33354550  0.31123781  0.62405460     0.10700
H660        H  0.34037675  0.30860167  0.56013727     0.10800
H661        H  0.22702335  0.31150451  0.54833880     0.10400
H662        H  0.22050668  0.31492406  0.61211611     0.11500
H663        H  0.31460654  0.29594503  0.50198568     0.11600
H664        H  0.24241072  0.33149674  0.49518716     0.13500
H665        H  0.21703857  0.32484094  0.43651573     0.10100
H666        H  0.22362334  0.32066007  0.37267905     0.12200
H667        H  0.33557300  0.30531990  0.38473974     0.08800
H668        H  0.32959139  0.31072552  0.44832529     0.11500
C669        C  0.27316721  0.39227445  0.71674968    -0.03100
C670        C  0.28093879  0.40683735  0.74972727    -0.05700
C671        C  0.28484653  0.44318434  0.75331988    -0.20800
C672        C  0.28146708  0.46527485  0.72394174     0.25000
C673        C  0.27283494  0.45046428  0.69113423    -0.18300
C674        C  0.26912054  0.41426109  0.68757619    -0.08300
C675        C  0.28602156  0.50367700  0.72830455    -0.18600
C676        C  0.29689659  0.52448445  0.70178898    -0.23400
C677        C  0.29872943  0.56327031  0.70387907     0.27000
C678        C  0.29782271  0.58239463  0.67234393    -0.20200
C679        C  0.29902991  0.61898055  0.67271892    -0.09800
C680        C  0.30133804  0.63713775  0.70466528    -0.10300
C681        C  0.30290603  0.61816525  0.73626872    -0.03300
C682        C  0.30161024  0.58150116  0.73594500    -0.18400
H683        H  0.28470317  0.39006510  0.77242297     0.10700
H684        H  0.29117046  0.45402385  0.77889125     0.10800
H685        H  0.26851716  0.46667972  0.66818597     0.10400
H686        H  0.26299678  0.40332616  0.66198449     0.11500
H687        H  0.27995639  0.51474715  0.75386390     0.11600
H688        H  0.30353560  0.51280896  0.67661412     0.13500
H689        H  0.29578256  0.56897215  0.64730573     0.10100
H690        H  0.29783485  0.63312839  0.64802595     0.12200
H691        H  0.30579436  0.63167712  0.76115316     0.08800
H692        H  0.30359155  0.56772888  0.76072545     0.11500
C693        C  0.07142490  0.08051423  0.62344836    -0.03100
C694        C  0.06855739  0.10594154  0.59689065    -0.05700
C695        C  0.09195572  0.13438935  0.59592627    -0.20800
C696        C  0.11918300  0.13719481  0.62076968     0.25000
C697        C  0.12275933  0.11098719  0.64657407    -0.18300
C698        C  0.09888576  0.08308799  0.64805821    -0.08300
C699        C  0.14093417  0.16947472  0.62193275    -0.18600
C700        C  0.17437738  0.16968482  0.63364778    -0.23400
C701        C  0.19351657  0.20261769  0.64156978     0.27000
C702        C  0.23032479  0.20378634  0.63788814    -0.20200
C703        C  0.24921121  0.23339135  0.64878159    -0.09800
C704        C  0.23154074  0.26178870  0.66422068    -0.10300
C705        C  0.19485312  0.26081062  0.66788212    -0.03300
C706        C  0.17586618  0.23158528  0.65630267    -0.18400
H707        H  0.04734577  0.10460665  0.57785545     0.10700
H708        H  0.08846061  0.15455183  0.57613246     0.10800
H709        H  0.14289952  0.11287348  0.66666671     0.10400
H710        H  0.10155249  0.06374869  0.66878840     0.11500
H711        H  0.12865898  0.19395243  0.61386453     0.11600
H712        H  0.18790372  0.14501433  0.63846723     0.13500
H713        H  0.24446818  0.18153711  0.62716059     0.10100
H714        H  0.27770483  0.23361978  0.64651074     0.12200
H715        H  0.18106357  0.28233900  0.68040281     0.08800
H716        H  0.14762411  0.23097649  0.66049067     0.11500
C717        C  0.30915771  0.25751165  0.74813537    -0.03100
C718        C  0.29595962  0.22356087  0.74302540    -0.05700
C719        C  0.30645382  0.19623609  0.76500248    -0.20800
C720        C  0.33014809  0.20232930  0.79271570     0.25000
C721        C  0.34348422  0.23652839  0.79778139    -0.18300
C722        C  0.33308523  0.26388036  0.77553198    -0.08300
C723        C  0.33767188  0.17278936  0.81701252    -0.18600
C724        C  0.36301597  0.17277503  0.84183360    -0.23400
C725        C  0.36607899  0.14387199  0.86784872     0.27000
C726        C  0.39892530  0.13609168  0.88302710    -0.20200
C727        C  0.40192268  0.10936311  0.90821472    -0.09800
C728        C  0.37192978  0.09041046  0.91897174    -0.10300
C729        C  0.33910946  0.09853973  0.90395329    -0.03300
C730        C  0.33616147  0.12499176  0.87889646    -0.18400
H731        H  0.27739008  0.21820615  0.72204867     0.10700
H732        H  0.29553228  0.17028611  0.76065887     0.10800
H733        H  0.36099631  0.24265060  0.81934703     0.10400
H734        H  0.34296729  0.29016614  0.78023974     0.11500
H735        H  0.32106557  0.14968769  0.81425741     0.11600
H736        H  0.38214827  0.19392926  0.84315755     0.13500
H737        H  0.42225993  0.15063723  0.87530439     0.10100
H738        H  0.42751754  0.10389381  0.91959117     0.12200
H739        H  0.31542127  0.08465947  0.91181259     0.08800
H740        H  0.31014975  0.13110985  0.86895106     0.11500
C741        C  0.05148575  0.38452593  0.92993972    -0.03100
C742        C  0.06675939  0.41597456  0.91781079    -0.05700
C743        C  0.09220659  0.41548556  0.89111890    -0.20800
C744        C  0.10315927  0.38358991  0.87629135     0.25000
C745        C  0.08732544  0.35220083  0.88790432    -0.18300
C746        C  0.06191489  0.35267330  0.91450333    -0.08300
C747        C  0.13041423  0.38367237  0.84817055    -0.18600
C748        C  0.15301671  0.35675460  0.84398093    -0.23400
C749        C  0.17958834  0.35384544  0.81534276     0.27000
C750        C  0.20538080  0.32764523  0.81841385    -0.20200
C751        C  0.22890639  0.32111697  0.79102553    -0.09800
C752        C  0.22727962  0.34064899  0.75982777    -0.10300
C753        C  0.20219989  0.36758200  0.75681439    -0.03300
C754        C  0.17847568  0.37416675  0.78434177    -0.18400
H755        H  0.05924017  0.44096757  0.92909951     0.10700
H756        H  0.10373590  0.44002915  0.88237032     0.10800
H757        H  0.09414076  0.32723213  0.87616595     0.10400
H758        H  0.05034200  0.32802685  0.92287414     0.11500
H759        H  0.13253574  0.40683667  0.83170176     0.11600
H760        H  0.15232004  0.33541453  0.86293721     0.13500
H761        H  0.20691789  0.31160475  0.84190214     0.10100
H762        H  0.24826004  0.30044189  0.79410928     0.12200
H763        H  0.20018998  0.38269341  0.73277270     0.08800
H764        H  0.15865063  0.39417784  0.78056893     0.11500
C765        C  0.69255717  0.27524892  0.38567997    -0.03100
C766        C  0.66074430  0.26519877  0.40155151    -0.05700
C767        C  0.65839054  0.26222461  0.43806499    -0.20800
C768        C  0.68745327  0.27047370  0.45931823     0.25000
C769        C  0.71935113  0.28074929  0.44338348    -0.18300
C770        C  0.72187243  0.28302088  0.40679059    -0.08300
C771        C  0.68392018  0.26752022  0.49794403    -0.18600
C772        C  0.70071497  0.28930925  0.52017605    -0.23400
C773        C  0.69677024  0.28702794  0.55884001     0.27000
C774        C  0.70056588  0.31762939  0.57907867    -0.20200
C775        C  0.69771847  0.31623800  0.61568886    -0.09800
C776        C  0.69193166  0.28405834  0.63254739    -0.10300
C777        C  0.68816615  0.25339779  0.61246799    -0.03300
C778        C  0.69056196  0.25481585  0.57588907    -0.18400
H779        H  0.63781624  0.25935700  0.38571219     0.10700
H780        H  0.63364192  0.25408094  0.44979434     0.10800
H781        H  0.74244338  0.28654372  0.45909668     0.10400
H782        H  0.74657207  0.29110501  0.39492969     0.11500
H783        H  0.66521553  0.24842393  0.50814226     0.11600
H784        H  0.71643808  0.31076996  0.50967672     0.13500
H785        H  0.70560085  0.34266594  0.56649280     0.10100
H786        H  0.70080598  0.34009110  0.63090729     0.12200
H787        H  0.68348792  0.22834236  0.62516390     0.08800
H788        H  0.68836745  0.23060598  0.56115562     0.11500
C789        C  0.60335044  0.27927110  0.71249296    -0.03100
C790        C  0.58438663  0.24855038  0.70474184    -0.05700
C791        C  0.54751480  0.24890658  0.70428375    -0.20800
C792        C  0.52893628  0.28002742  0.71114619     0.25000
C793        C  0.54808274  0.31075745  0.71896423    -0.18300
C794        C  0.58489150  0.31035634  0.71919069    -0.08300
C795        C  0.48976729  0.27913252  0.71076297    -0.18600
C796        C  0.46963783  0.30787310  0.70600422    -0.23400
C797        C  0.43050687  0.30719233  0.70618065     0.27000
C798        C  0.41235047  0.33839564  0.71378383    -0.20200
C799        C  0.37552668  0.33903885  0.71418783    -0.09800
C800        C  0.35628170  0.30844875  0.70706637    -0.10300
C801        C  0.37419108  0.27740558  0.69861660    -0.03300
C802        C  0.41101164  0.27673003  0.69810063    -0.18400
H803        H  0.59806462  0.22437006  0.69871224     0.10700
H804        H  0.53345115  0.22485919  0.69825964     0.10800
H805        H  0.53497031  0.33503987  0.72561631     0.10400
H806        H  0.59890490  0.33426935  0.72525757     0.11500
H807        H  0.47734947  0.25369403  0.71430597     0.11600
H808        H  0.48202023  0.33330780  0.70240173     0.13500
H809        H  0.42672570  0.36228265  0.71971837     0.10100
H810        H  0.36202794  0.36330273  0.72045262     0.12200
H811        H  0.35964286  0.25381176  0.69198803     0.08800
H812        H  0.42390176  0.25254211  0.69068516     0.11500
C813        C  0.64709492  0.22742244  0.75440453    -0.03100
C814        C  0.65083053  0.19281845  0.74282803    -0.05700
C815        C  0.64051053  0.16509282  0.76433207    -0.20800
C816        C  0.62630943  0.17160512  0.79774587     0.25000
C817        C  0.62100041  0.20658691  0.80861975    -0.18300
C818        C  0.63129621  0.23436409  0.78690092    -0.08300
C819        C  0.62234420  0.14148219  0.82187912    -0.18600
C820        C  0.60539988  0.14270812  0.85285011    -0.23400
C821        C  0.61017813  0.11448834  0.87896229     0.27000
C822        C  0.58218361  0.10446576  0.90084974    -0.20200
C823        C  0.58694340  0.07792935  0.92581974    -0.09800
C824        C  0.62002190  0.06173665  0.92962442    -0.10300
C825        C  0.64817177  0.07247454  0.90821219    -0.03300
C826        C  0.64332161  0.09856575  0.88316391    -0.18400
H827        H  0.66218390  0.18729465  0.71733941     0.10700
H828        H  0.64486574  0.13844324  0.75537050     0.10800
H829        H  0.61080455  0.21274584  0.83443053     0.10400
H830        H  0.62836498  0.26115392  0.79600334     0.11500
H831        H  0.63607619  0.11747565  0.81470034     0.11600
H832        H  0.58860356  0.16471024  0.85965535     0.13500
H833        H  0.55663343  0.11691452  0.89836017     0.10100
H834        H  0.56495542  0.07041782  0.94240013     0.12200
H835        H  0.67404487  0.06071659  0.91077991     0.08800
H836        H  0.66576047  0.10671067  0.86750683     0.11500
C837        C  0.73945998  0.23784815  0.67741981    -0.03100
C838        C  0.76765105  0.25381832  0.65955096    -0.05700
C839        C  0.79728666  0.23415263  0.64999074    -0.20800
C840        C  0.79881244  0.19809363  0.65741269     0.25000
C841        C  0.77028234  0.18205889  0.67481503    -0.18300
C842        C  0.74109311  0.20190342  0.68510278    -0.08300
C843        C  0.83148237  0.17822421  0.64966525    -0.18600
C844        C  0.83089328  0.14434132  0.63973510    -0.23400
C845        C  0.86323388  0.12282535  0.63611854     0.27000
C846        C  0.86391000  0.09548492  0.61141714    -0.20200
C847        C  0.89276151  0.07271015  0.60965442    -0.09800
C848        C  0.92093179  0.07621053  0.63336488    -0.10300
C849        C  0.92042443  0.10369649  0.65796316    -0.03300
C850        C  0.89199759  0.12704739  0.65910935    -0.18400
H851        H  0.76725370  0.28174630  0.65415348     0.10700
H852        H  0.81919829  0.24714101  0.63709062     0.10800
H853        H  0.77115986  0.15450945  0.68180360     0.10400
H854        H  0.72006855  0.18924585  0.69952221     0.11500
H855        H  0.85655737  0.19187718  0.65206912     0.11600
H856        H  0.80576137  0.13183419  0.63396514     0.13500
H857        H  0.84187038  0.09152526  0.59371772     0.10100
H858        H  0.89244221  0.05153780  0.59064098     0.12200
H859        H  0.94187939  0.10691035  0.67650224     0.08800
H860        H  0.89187424  0.14741336  0.67896436     0.11500
C861        C  0.73587373  0.31060286  0.76573272    -0.03100
C862        C  0.76926561  0.29500700  0.76411823    -0.05700
C863        C  0.79566622  0.30491432  0.78765193    -0.20800
C864        C  0.78931917  0.33065284  0.81330024     0.25000
C865        C  0.75567921  0.34617116  0.81511673    -0.18300
C866        C  0.72918190  0.33613084  0.79153369    -0.08300
C867        C  0.81782360  0.33836231  0.83891971    -0.18600
C868        C  0.81872778  0.36637526  0.86056937    -0.23400
C869        C  0.84685437  0.37050258  0.88746541     0.27000
C870        C  0.85753089  0.40415054  0.89831662    -0.20200
C871        C  0.88451376  0.40817369  0.92326572    -0.09800
C872        C  0.90091058  0.37851637  0.93800744    -0.10300
C873        C  0.88934393  0.34495712  0.92780982    -0.03300
C874        C  0.86260104  0.34099057  0.90308225    -0.18400
H875        H  0.77509070  0.27537059  0.74435800     0.10700
H876        H  0.82119566  0.29228885  0.78586235     0.10800
H877        H  0.74933625  0.36528794  0.83513952     0.10400
H878        H  0.70330927  0.34789771  0.79381201     0.11500
H879        H  0.83959045  0.31986912  0.83960252     0.11600
H880        H  0.79925370  0.38706967  0.85816056     0.13500
H881        H  0.84536635  0.42729554  0.88708081     0.10100
H882        H  0.89261350  0.43437742  0.93085894     0.12200
H883        H  0.90095346  0.32149553  0.93895823     0.08800
H884        H  0.85404682  0.31464491  0.89663493     0.11500
C885        C  0.72775721  0.69042244  0.37933078    -0.03100
C886        C  0.75902883  0.67801381  0.39454471    -0.05700
C887        C  0.76257212  0.67695133  0.43109707    -0.20800
C888        C  0.73480504  0.68797428  0.45287251     0.25000
C889        C  0.70364907  0.70075668  0.43735879    -0.18300
C890        C  0.70018369  0.70176331  0.40089633    -0.08300
C891        C  0.73973610  0.68740016  0.49151758    -0.18600
C892        C  0.71250027  0.68494664  0.51414192    -0.23400
C893        C  0.71578431  0.68601765  0.55305167     0.27000
C894        C  0.68462059  0.68756280  0.57298491    -0.20200
C895        C  0.68591397  0.68921918  0.60959603    -0.09800
C896        C  0.71843761  0.68938140  0.62703162    -0.10300
C897        C  0.74966817  0.68706714  0.60739442    -0.03300
C898        C  0.74845719  0.68559964  0.57073944    -0.18400
H899        H  0.78065324  0.66929353  0.37810906     0.10700
H900        H  0.78697220  0.66741704  0.44240791     0.10800
H901        H  0.68228467  0.71101989  0.45313032     0.10400
H902        H  0.67648477  0.71261641  0.38956781     0.11500
H903        H  0.76662467  0.68870717  0.50099770     0.11600
H904        H  0.68598768  0.68219551  0.50372431     0.13500
H905        H  0.65909796  0.68777667  0.56016562     0.10100
H906        H  0.66148198  0.69083345  0.62428918     0.12200
H907        H  0.77504063  0.68612033  0.62044685     0.08800
H908        H  0.77320612  0.68376463  0.55684545     0.11500
C909        C  0.39000524  0.71966369  0.69857727    -0.03100
C910        C  0.40837342  0.75107493  0.69228285    -0.05700
C911        C  0.44523587  0.75128788  0.69077589    -0.20800
C912        C  0.46442617  0.72017826  0.69572579     0.25000
C913        C  0.44581276  0.68845480  0.70056015    -0.18300
C914        C  0.40892556  0.68826293  0.70188519    -0.08300
C915        C  0.50367274  0.72170400  0.69510701    -0.18600
C916        C  0.52403330  0.69858400  0.71264131    -0.23400
C917        C  0.56335791  0.69875603  0.71283922     0.27000
C918        C  0.58063826  0.66896131  0.72608023    -0.20200
C919        C  0.61739637  0.66724893  0.72684957    -0.09800
C920        C  0.63776173  0.69531789  0.71452801    -0.10300
C921        C  0.62089668  0.72552949  0.70187286    -0.03300
C922        C  0.58396060  0.72734150  0.70103950    -0.18400
H923        H  0.39416801  0.77547246  0.68874281     0.10700
H924        H  0.45884017  0.77593893  0.68636064     0.10800
H925        H  0.45953535  0.66369856  0.70300846     0.10400
H926        H  0.39514574  0.66367486  0.70614993     0.11500
H927        H  0.51567303  0.74310224  0.68058630     0.11600
H928        H  0.51130542  0.67796695  0.72776176     0.13500
H929        H  0.56560985  0.64673309  0.73574103     0.10100
H930        H  0.62989140  0.64415549  0.73753701     0.12200
H931        H  0.63634482  0.74751187  0.69231592     0.08800
H932        H  0.57197502  0.75118471  0.69140186     0.11500
C933        C  0.72173244  0.60676655  0.71061292    -0.03100
C934        C  0.75319138  0.58868326  0.70350078    -0.05700
C935        C  0.75373714  0.55196997  0.70329398    -0.20800
C936        C  0.72293930  0.53277076  0.71047495     0.25000
C937        C  0.69127496  0.55101937  0.71660766    -0.18300
C938        C  0.69074914  0.58763758  0.71651745    -0.08300
C939        C  0.72416514  0.49385669  0.70969340    -0.18600
C940        C  0.70175729  0.47380952  0.72849548    -0.23400
C941        C  0.69990727  0.43496434  0.72620305     0.27000
C942        C  0.66895638  0.41836147  0.73788452    -0.20200
C943        C  0.66536574  0.38198955  0.73578401    -0.09800
C944        C  0.69273631  0.36154607  0.72218077    -0.10300
C945        C  0.72401350  0.37773040  0.71101714    -0.03300
C946        C  0.72769302  0.41421129  0.71305915    -0.18400
H947        H  0.77722356  0.60295417  0.69770803     0.10700
H948        H  0.77827425  0.53853009  0.69773115     0.10800
H949        H  0.66665376  0.53720499  0.72069608     0.10400
H950        H  0.66612304  0.60094229  0.72122402     0.11500
H951        H  0.74390785  0.48182706  0.69298285     0.11600
H952        H  0.68270972  0.48644970  0.74562333     0.13500
H953        H  0.64734933  0.43362958  0.74851369     0.10100
H954        H  0.64157077  0.36980583  0.74557145     0.12200
H955        H  0.74554972  0.36206435  0.70083645     0.08800
H956        H  0.75239344  0.42575449  0.70477162     0.11500
C957        C  0.68859410  0.74162254  0.75655592    -0.03100
C958        C  0.70392952  0.77480054  0.75218860    -0.05700
C959        C  0.69587428  0.80205464  0.77523703    -0.20800
C960        C  0.67248087  0.79677022  0.80337848     0.25000
C961        C  0.65669900  0.76345043  0.80756627    -0.18300
C962        C  0.66464509  0.73612723  0.78417651    -0.08300
C963        C  0.66759800  0.82624111  0.82855901    -0.18600
C964        C  0.64341183  0.82731442  0.85450452    -0.23400
C965        C  0.64211273  0.85676746  0.88016428     0.27000
C966        C  0.60998378  0.86566259  0.89619108    -0.20200
C967        C  0.60835173  0.89306696  0.92072538    -0.09800
C968        C  0.63897723  0.91183239  0.92999260    -0.10300
C969        C  0.67115136  0.90260175  0.91419846    -0.03300
C970        C  0.67276224  0.87533260  0.88977341    -0.18400
H971        H  0.72237115  0.77960554  0.73094054     0.10700
H972        H  0.70850448  0.82730664  0.77136160     0.10800
H973        H  0.63908835  0.75793790  0.82922891     0.10400
H974        H  0.65295779  0.71047526  0.78825488     0.11500
H975        H  0.68508520  0.84860917  0.82522430     0.11600
H976        H  0.62356462  0.80690168  0.85672263     0.13500
H977        H  0.58607996  0.85151535  0.88955297     0.10100
H978        H  0.58317465  0.89939046  0.93257683     0.12200
H979        H  0.69532081  0.91619713  0.92099630     0.08800
H980        H  0.69828024  0.86841720  0.87910516     0.11500
C981        C  0.77006838  0.65183738  0.75484773    -0.03100
C982        C  0.75962048  0.63624579  0.78655979    -0.05700
C983        C  0.78501104  0.62425265  0.81033290    -0.20800
C984        C  0.82107157  0.62783260  0.80271961     0.25000
C985        C  0.83129982  0.64180463  0.76996198    -0.18300
C986        C  0.80591530  0.65396020  0.74636730    -0.08300
C987        C  0.84731269  0.61865008  0.83010861    -0.18600
C988        C  0.87763389  0.63666922  0.83351591    -0.23400
C989        C  0.90147349  0.63320730  0.86409613     0.27000
C990        C  0.92072912  0.66287250  0.87433822    -0.20200
C991        C  0.94287139  0.66160342  0.90345495    -0.09800
C992        C  0.94685904  0.63035805  0.92269962    -0.10300
C993        C  0.92829246  0.60023068  0.91205499    -0.03300
C994        C  0.90551047  0.60167868  0.88303446    -0.18400
H995        H  0.73190647  0.63411963  0.79317435     0.10700
H996        H  0.77651293  0.61330310  0.83524603     0.10800
H997        H  0.85882207  0.64362101  0.76262961     0.10400
H998        H  0.81421139  0.66476781  0.72136287     0.11500
H999        H  0.83962639  0.59992165  0.85026754     0.11600
H1000       H  0.88333389  0.65790260  0.81528195     0.13500
H1001       H  0.91820376  0.68737721  0.86005823     0.10100
H1002       H  0.95717161  0.68516443  0.91070653     0.12200
H1003       H  0.93110162  0.57578364  0.92633265     0.08800
H1004       H  0.89150830  0.57814610  0.87525670     0.11500
C1005       C  0.76643906  0.73870287  0.67103909    -0.03100
C1006       C  0.75535238  0.76278433  0.64527196    -0.05700
C1007       C  0.77768978  0.79011939  0.63446729    -0.20800
C1008       C  0.81111530  0.79438952  0.64981220     0.25000
C1009       C  0.82250789  0.76961882  0.67479182    -0.18300
C1010       C  0.80030863  0.74234116  0.68542054    -0.08300
C1011       C  0.83344409  0.82506084  0.63994930    -0.18600
C1012       C  0.85559401  0.84019974  0.66320578    -0.23400
C1013       C  0.87865287  0.87104317  0.65596354     0.27000
C1014       C  0.89425986  0.88798722  0.68481335    -0.20200
C1015       C  0.91771494  0.91582993  0.67996705    -0.09800
C1016       C  0.92643532  0.92743064  0.64600534    -0.10300
C1017       C  0.91053894  0.91085645  0.61694759    -0.03300
C1018       C  0.88687624  0.88289587  0.62182623    -0.18400
H1019       H  0.72907887  0.76111650  0.63424884     0.10700
H1020       H  0.76836808  0.80869470  0.61500576     0.10800
H1021       H  0.84856975  0.77124212  0.68628438     0.10400
H1022       H  0.80962862  0.72420948  0.70521222     0.11500
H1023       H  0.82984901  0.83641181  0.61403758     0.11600
H1024       H  0.85614946  0.83012591  0.68992269     0.13500
H1025       H  0.88853920  0.87941213  0.71138676     0.10100
H1026       H  0.92941903  0.92792544  0.70295015     0.12200
H1027       H  0.91674948  0.91915845  0.59041330     0.08800
H1028       H  0.87593222  0.87024363  0.59883548     0.11500
loop_ 
_geom_bond_atom_site_label_1 
_geom_bond_atom_site_label_2 
_geom_bond_distance 
_geom_bond_site_symmetry_2 
_ccdc_geom_bond_type 
C1            H2   1.111       .  S
C1            C7   1.533       .  S
C1            C6   1.536       .  S
C1            C5   1.543       .  S
C3            H4   1.111       .  S
C3            C9   1.537       .  S
C3            C8   1.534       .  S
C3           C10   1.534       .  S
C5            C8   1.378       .  D
C5          C896   1.478       .  S
C6            C9   1.371       .  D
C6          C920   1.479       .  S
C7           C10   1.368       .  D
C7          C933   1.481       .  S
C8         C1005   1.490       .  S
C9          C957   1.479       .  S
C10         C981   1.472       .  S
C11          H12   1.112       .  S
C11          C17   1.528       .  S
C11          C16   1.536       .  S
C11          C15   1.533       .  S
C13          H14   1.111       .  S
C13          C19   1.534       .  S
C13          C18   1.534       .  S
C13          C20   1.541       .  S
C15          C18   1.369       .  D
C15         C813   1.466       .  S
C16          C19   1.372       .  D
C16         C861   1.482       .  S
C17          C20   1.373       .  D
C17         C837   1.481       .  S
C18         C789   1.482       .  S
C19         C944   1.473       .  S
C20         C776   1.474       .  S
C21          H22   1.112       .  S
C21          C27   1.535       .  S
C21          C26   1.534       .  S
C21          C25   1.535       .  S
C23          H24   1.112       .  S
C23          C29   1.532       .  S
C23          C28   1.532       .  S
C23          C30   1.535       .  S
C25          C28   1.371       .  D
C25         C645   1.482       .  S
C26          C29   1.372       .  D
C26         C800   1.475       .  S
C27          C30   1.373       .  D
C27         C669   1.472       .  S
C28         C704   1.471       .  S
C29         C717   1.476       .  S
C30         C752   1.484       .  S
C31          H32   1.112       .  S
C31          C37   1.528       .  S
C31          C36   1.529       .  S
C31          C35   1.534       .  S
C33          H34   1.111       .  S
C33          C39   1.540       .  S
C33          C38   1.536       .  S
C33          C40   1.540       .  S
C35          C38   1.373       .  D
C35         C621   1.478       .  S
C36          C39   1.373       .  D
C36         C573   1.481       .  S
C37          C40   1.373       .  D
C37         C597   1.472       .  S
C38         C909   1.482       .  S
C39         C680   1.478       .  S
C40         C560   1.483       .  S
C41          H42   1.111       .  S
C41          C47   1.537       .  S
C41          C46   1.540       .  S
C41          C45   1.535       .  S
C43          H44   1.111       .  S
C43          C49   1.535       .  S
C43          C48   1.535       .  S
C43          C50   1.526       .  S
C45          C48   1.372       .  D
C45         C549   1.477       .  S
C46          C49   1.376       .  D
C46         C453   1.481       .  S
C47          C50   1.368       .  D
C47         C429   1.474       .  S
C48         C525   1.480       .  S
C49         C501   1.484       .  S
C50         C488   1.471       .  S
C51          H52   1.111       .  S
C51          C57   1.530       .  S
C51          C56   1.525       .  S
C51          C55   1.533       .  S
C53          H54   1.111       .  S
C53          C59   1.537       .  S
C53          C58   1.537       .  S
C53          C60   1.537       .  S
C55          C58   1.374       .  D
C55         C392   1.472       .  S
C56          C59   1.371       .  D
C56         C357   1.475       .  S
C57          C60   1.371       .  D
C57         C405   1.479       .  S
C58         C464   1.487       .  S
C59         C333   1.472       .  S
C60         C885   1.473       .  S
C61          H62   1.112       .  S
C61          C67   1.531       .  S
C61          C66   1.533       .  S
C61          C65   1.528       .  S
C63          H64   1.111       .  S
C63          C69   1.538       .  S
C63          C68   1.538       .  S
C63          C70   1.536       .  S
C65          C68   1.372       .  D
C65         C285   1.479       .  S
C66          C69   1.375       .  D
C66         C261   1.479       .  S
C67          C70   1.372       .  D
C67         C309   1.477       .  S
C68         C237   1.477       .  S
C69         C440   1.479       .  S
C70         C656   1.482       .  S
C71          H72   1.112       .  S
C71          C77   1.538       .  S
C71          C76   1.531       .  S
C71          C75   1.534       .  S
C73          H74   1.111       .  S
C73          C79   1.532       .  S
C73          C78   1.537       .  S
C73          C80   1.527       .  S
C75          C78   1.374       .  D
C75         C765   1.477       .  S
C76          C79   1.368       .  D
C76         C248   1.467       .  S
C77          C80   1.372       .  D
C77         C344   1.475       .  S
C78         C213   1.481       .  S
C79         C165   1.477       .  S
C80         C189   1.476       .  S
O81         Ni89   1.906   1_655  S
O81          C91   1.280       .  A
O82         Ni89   1.906   1_545  S
O82          C92   1.280       .  A
O83         Ni89   1.901       .  S
O83          C93   1.279       .  A
O84         Ni89   1.902   1_645  S
O84          C94   1.279       .  A
O85         Ni90   1.922   1_655  S
O85          C94   1.283       .  A
O86         Ni90   1.924   1_565  S
O86          C93   1.283       .  A
O87         Ni90   1.922       .  S
O87          C92   1.283       .  A
O88         Ni90   1.921   1_665  S
O88          C91   1.282       .  A
Ni89        Ni90   2.387   1_565  S
C91         C416   1.477       .  S
C92         C320   1.478       .  S
C93         C536   1.477       .  S
C94         C224   1.475       .  S
O95        Ni103   1.918   1_655  S
O95         C105   1.281       .  A
O96        Ni103   1.913   1_565  S
O96         C106   1.281       .  A
O97        Ni103   1.908       .  S
O97         C107   1.280       .  A
O98        Ni103   1.917   1_665  S
O98         C108   1.283       .  A
O99        Ni104   1.920   1_565  S
O99         C108   1.282       .  A
O100       Ni104   1.924   1_455  S
O100        C107   1.282       .  A
O101       Ni104   1.922   1_465  S
O101        C106   1.282       .  A
O102       Ni104   1.918       .  S
O102        C105   1.281       .  A
Ni103      Ni104   2.388   1_455  S
C105        C848   1.476       .  S
C106        C608   1.476       .  S
C107        C693   1.472       .  S
C108       C1016   1.484       .  S
O109       Ni117   1.929   1_554  S
O109        C119   1.284       .  A
O110       Ni117   1.931   1_565  S
O110        C120   1.284       .  A
O111       Ni117   1.925       .  S
O111        C121   1.283       .  A
O112       Ni117   1.924   1_564  S
O112        C122   1.283       .  A
O113       Ni118   1.904   1_564  S
O113        C122   1.280       .  A
O114       Ni118   1.904       .  S
O114        C121   1.280       .  A
O115       Ni118   1.900   1_565  S
O115        C120   1.279       .  A
O116       Ni118   1.900   1_554  S
O116        C119   1.279       .  A
Ni117      Ni118   2.386       .  S
C119        C296   1.479       .  S
C120        C632   1.480       .  S
C121        C728   1.478       .  S
C122        C512   1.479       .  S
O123       Ni131   1.916   1_456  S
O123        C133   1.282       .  A
O124       Ni131   1.915       .  S
O124        C134   1.282       .  A
O125       Ni131   1.902   1_556  S
O125        C135   1.279       .  A
O126       Ni131   1.902   1_455  S
O126        C136   1.279       .  A
O127       Ni132   1.931   1_455  S
O127        C136   1.284       .  A
O128       Ni132   1.929   1_556  S
O128        C135   1.284       .  A
O129       Ni132   1.920       .  S
O129        C134   1.281       .  A
O130       Ni132   1.920   1_456  S
O130        C133   1.282       .  A
Ni131      Ni132   2.386       .  S
C133        C741   1.482       .  S
C134        C200   1.480       .  S
C135        C872   1.481       .  S
C136        C272   1.481       .  S
O137       Ni145   1.914   1_546  S
O137        C147   1.281       .  A
O138       Ni145   1.915       .  S
O138        C148   1.281       .  A
O139       Ni145   1.917   1_545  S
O139        C149   1.282       .  A
O140       Ni145   1.922   1_556  S
O140        C150   1.282       .  A
O141       Ni146   1.914       .  S
O141        C150   1.282       .  A
O142       Ni146   1.915   1_544  S
O142        C149   1.282       .  A
O143       Ni146   1.900   1_554  S
O143        C148   1.279       .  A
O144       Ni146   1.901   1_545  S
O144        C147   1.279       .  A
Ni145      Ni146   2.388   1_554  S
C147        C824   1.470       .  S
C148        C381   1.471       .  S
C149        C176   1.479       .  S
C150        C968   1.482       .  S
O151       Ni159   1.903       .  S
O151        C161   1.279       .  A
O152       Ni159   1.896   1_656  S
O152        C162   1.278       .  A
O153       Ni159   1.920   1_655  S
O153        C163   1.282       .  A
O154       Ni159   1.919   1_556  S
O154        C164   1.282       .  A
O155       Ni160   1.920   1_556  S
O155        C164   1.281       .  A
O156       Ni160   1.919   1_655  S
O156        C163   1.281       .  A
O157       Ni160   1.931   1_656  S
O157        C162   1.284       .  A
O158       Ni160   1.925       .  S
O158        C161   1.283       .  A
Ni159      Ni160   2.388       .  S
C161        C477   1.478       .  S
C162        C992   1.475       .  S
C163        C368   1.481       .  S
C164        C584   1.475       .  S
C165        C166   1.401       .  A
C165        C170   1.402       .  A
C166        C167   1.395       .  A
C166        H179   1.083       .  S
C167        C168   1.403       .  A
C167        H180   1.083       .  S
C168        C171   1.483       .  S
C168        C169   1.409       .  A
C169        C170   1.397       .  A
C169        H181   1.081       .  S
C170        H182   1.082       .  S
C171        C172   1.345       .  D
C171        H183   1.086       .  S
C172        C173   1.483       .  S
C172        H184   1.085       .  S
C173        C174   1.402       .  A
C173        C178   1.407       .  A
C174        C175   1.398       .  A
C174        H185   1.083       .  S
C175        C176   1.406       .  A
C175        H186   1.083       .  S
C176        C177   1.405       .  A
C177        C178   1.396       .  A
C177        H187   1.083       .  S
C178        H188   1.082       .  S
C189        C190   1.398       .  A
C189        C194   1.401       .  A
C190        C191   1.394       .  A
C190        H203   1.081       .  S
C191        C192   1.403       .  A
C191        H204   1.083       .  S
C192        C195   1.485       .  S
C192        C193   1.410       .  A
C193        C194   1.402       .  A
C193        H205   1.081       .  S
C194        H206   1.083       .  S
C195        C196   1.346       .  D
C195        H207   1.087       .  S
C196        C197   1.486       .  S
C196        H208   1.085       .  S
C197        C198   1.403       .  A
C197        C202   1.407       .  A
C198        C199   1.402       .  A
C198        H209   1.083       .  S
C199        C200   1.407       .  A
C199        H210   1.083       .  S
C200        C201   1.403       .  A
C201        C202   1.395       .  A
C201        H211   1.083       .  S
C202        H212   1.082       .  S
C213        C214   1.405       .  A
C213        C218   1.400       .  A
C214        C215   1.399       .  A
C214        H227   1.082       .  S
C215        C216   1.403       .  A
C215        H228   1.083       .  S
C216        C219   1.481       .  S
C216        C217   1.406       .  A
C217        C218   1.390       .  A
C217        H229   1.082       .  S
C218        H230   1.079       .  S
C219        C220   1.345       .  D
C219        H231   1.085       .  S
C220        C221   1.480       .  S
C220        H232   1.086       .  S
C221        C222   1.401       .  A
C221        C226   1.408       .  A
C222        C223   1.391       .  A
C222        H233   1.084       .  S
C223        C224   1.404       .  A
C223        H234   1.083       .  S
C224        C225   1.405       .  A
C225        C226   1.399       .  A
C225        H235   1.083       .  S
C226        H236   1.081       .  S
C237        C238   1.401       .  A
C237        C242   1.401       .  A
C238        C239   1.396       .  A
C238        H251   1.083       .  S
C239        C240   1.404       .  A
C239        H252   1.083       .  S
C240        C243   1.484       .  S
C240        C241   1.409       .  A
C241        C242   1.394       .  A
C241        H253   1.080       .  S
C242        H254   1.083       .  S
C243        C244   1.346       .  D
C243        H255   1.085       .  S
C244        C245   1.481       .  S
C244        H256   1.084       .  S
C245        C246   1.403       .  A
C245        C250   1.410       .  A
C246        C247   1.393       .  A
C246        H257   1.083       .  S
C247        C248   1.398       .  A
C247        H258   1.082       .  S
C248        C249   1.399       .  A
C249        C250   1.398       .  A
C249        H259   1.083       .  S
C250        H260   1.081       .  S
C261        C262   1.400       .  A
C261        C266   1.402       .  A
C262        C263   1.394       .  A
C262        H275   1.084       .  S
C263        C264   1.404       .  A
C263        H276   1.083       .  S
C264        C267   1.488       .  S
C264        C265   1.411       .  A
C265        C266   1.401       .  A
C265        H277   1.080       .  S
C266        H278   1.083       .  S
C267        C268   1.348       .  D
C267        H279   1.085       .  S
C268        C269   1.488       .  S
C268        H280   1.083       .  S
C269        C270   1.406       .  A
C269        C274   1.407       .  A
C270        C271   1.403       .  A
C270        H281   1.083       .  S
C271        C272   1.405       .  A
C271        H282   1.083       .  S
C272        C273   1.405       .  A
C273        C274   1.393       .  A
C273        H283   1.083       .  S
C274        H284   1.081       .  S
C285        C286   1.400       .  A
C285        C290   1.404       .  A
C286        C287   1.394       .  A
C286        H299   1.084       .  S
C287        C288   1.403       .  A
C287        H300   1.083       .  S
C288        C291   1.482       .  S
C288        C289   1.408       .  A
C289        C290   1.400       .  A
C289        H301   1.082       .  S
C290        H302   1.083       .  S
C291        C292   1.347       .  D
C291        H303   1.087       .  S
C292        C293   1.484       .  S
C292        H304   1.085       .  S
C293        C294   1.405       .  A
C293        C298   1.404       .  A
C294        C295   1.403       .  A
C294        H305   1.083       .  S
C295        C296   1.406       .  A
C295        H306   1.083       .  S
C296        C297   1.405       .  A
C297        C298   1.390       .  A
C297        H307   1.083       .  S
C298        H308   1.082       .  S
C309        C310   1.404       .  A
C309        C314   1.400       .  A
C310        C311   1.397       .  A
C310        H323   1.083       .  S
C311        C312   1.402       .  A
C311        H324   1.083       .  S
C312        C315   1.481       .  S
C312        C313   1.407       .  A
C313        C314   1.394       .  A
C313        H325   1.082       .  S
C314        H326   1.083       .  S
C315        C316   1.345       .  D
C315        H327   1.085       .  S
C316        C317   1.481       .  S
C316        H328   1.086       .  S
C317        C318   1.401       .  A
C317        C322   1.408       .  A
C318        C319   1.393       .  A
C318        H329   1.084       .  S
C319        C320   1.405       .  A
C319        H330   1.083       .  S
C320        C321   1.406       .  A
C321        C322   1.400       .  A
C321        H331   1.083       .  S
C322        H332   1.081       .  S
C333        C334   1.400       .  A
C333        C338   1.402       .  A
C334        C335   1.390       .  A
C334        H347   1.081       .  S
C335        C336   1.400       .  A
C335        H348   1.084       .  S
C336        C339   1.474       .  S
C336        C337   1.407       .  A
C337        C338   1.398       .  A
C337        H349   1.082       .  S
C338        H350   1.083       .  S
C339        C340   1.344       .  D
C339        H351   1.086       .  S
C340        C341   1.478       .  S
C340        H352   1.085       .  S
C341        C342   1.402       .  A
C341        C346   1.407       .  A
C342        C343   1.398       .  A
C342        H353   1.083       .  S
C343        C344   1.403       .  A
C343        H354   1.083       .  S
C344        C345   1.400       .  A
C345        C346   1.390       .  A
C345        H355   1.082       .  S
C346        H356   1.082       .  S
C357        C358   1.400       .  A
C357        C362   1.400       .  A
C358        C359   1.399       .  A
C358        H371   1.083       .  S
C359        C360   1.405       .  A
C359        H372   1.083       .  S
C360        C363   1.484       .  S
C360        C361   1.408       .  A
C361        C362   1.397       .  A
C361        H373   1.082       .  S
C362        H374   1.083       .  S
C363        C364   1.346       .  D
C363        H375   1.086       .  S
C364        C365   1.484       .  S
C364        H376   1.086       .  S
C365        C366   1.403       .  A
C365        C370   1.407       .  A
C366        C367   1.401       .  A
C366        H377   1.083       .  S
C367        C368   1.406       .  A
C367        H378   1.083       .  S
C368        C369   1.404       .  A
C369        C370   1.397       .  A
C369        H379   1.083       .  S
C370        H380   1.082       .  S
C381        C382   1.404       .  A
C381        C386   1.404       .  A
C382        C383   1.390       .  A
C382        H395   1.083       .  S
C383        C384   1.400       .  A
C383        H396   1.084       .  S
C384        C387   1.476       .  S
C384        C385   1.408       .  A
C385        C386   1.396       .  A
C385        H397   1.081       .  S
C386        H398   1.083       .  S
C387        C388   1.343       .  D
C387        H399   1.086       .  S
C388        C389   1.476       .  S
C388        H400   1.085       .  S
C389        C390   1.402       .  A
C389        C394   1.407       .  A
C390        C391   1.396       .  A
C390        H401   1.083       .  S
C391        C392   1.404       .  A
C391        H402   1.083       .  S
C392        C393   1.398       .  A
C393        C394   1.390       .  A
C393        H403   1.083       .  S
C394        H404   1.082       .  S
C405        C406   1.399       .  A
C405        C410   1.403       .  A
C406        C407   1.393       .  A
C406        H419   1.082       .  S
C407        C408   1.404       .  A
C407        H420   1.084       .  S
C408        C411   1.485       .  S
C408        C409   1.410       .  A
C409        C410   1.399       .  A
C409        H421   1.079       .  S
C410        H422   1.083       .  S
C411        C412   1.347       .  D
C411        H423   1.087       .  S
C412        C413   1.482       .  S
C412        H424   1.083       .  S
C413        C414   1.403       .  A
C413        C418   1.405       .  A
C414        C415   1.401       .  A
C414        H425   1.083       .  S
C415        C416   1.406       .  A
C415        H426   1.083       .  S
C416        C417   1.404       .  A
C417        C418   1.391       .  A
C417        H427   1.083       .  S
C418        H428   1.082       .  S
C429        C430   1.400       .  A
C429        C434   1.401       .  A
C430        C431   1.398       .  A
C430        H443   1.083       .  S
C431        C432   1.404       .  A
C431        H444   1.083       .  S
C432        C435   1.481       .  S
C432        C433   1.407       .  A
C433        C434   1.394       .  A
C433        H445   1.082       .  S
C434        H446   1.083       .  S
C435        C436   1.347       .  D
C435        H447   1.085       .  S
C436        C437   1.482       .  S
C436        H448   1.085       .  S
C437        C438   1.404       .  A
C437        C442   1.407       .  A
C438        C439   1.397       .  A
C438        H449   1.083       .  S
C439        C440   1.403       .  A
C439        H450   1.082       .  S
C440        C441   1.402       .  A
C441        C442   1.395       .  A
C441        H451   1.084       .  S
C442        H452   1.081       .  S
C453        C454   1.405       .  A
C453        C458   1.399       .  A
C454        C455   1.400       .  A
C454        H467   1.083       .  S
C455        C456   1.405       .  A
C455        H468   1.083       .  S
C456        C459   1.487       .  S
C456        C457   1.407       .  A
C457        C458   1.393       .  A
C457        H469   1.081       .  S
C458        H470   1.078       .  S
C459        C460   1.349       .  D
C459        H471   1.084       .  S
C460        C461   1.486       .  S
C460        H472   1.085       .  S
C461        C462   1.404       .  A
C461        C466   1.408       .  A
C462        C463   1.395       .  A
C462        H473   1.084       .  S
C463        C464   1.400       .  A
C463        H474   1.078       .  S
C464        C465   1.406       .  A
C465        C466   1.399       .  A
C465        H475   1.083       .  S
C466        H476   1.080       .  S
C477        C478   1.406       .  A
C477        C482   1.406       .  A
C478        C479   1.391       .  A
C478        H491   1.083       .  S
C479        C480   1.399       .  A
C479        H492   1.084       .  S
C480        C483   1.477       .  S
C480        C481   1.407       .  A
C481        C482   1.401       .  A
C481        H493   1.082       .  S
C482        H494   1.083       .  S
C483        C484   1.344       .  D
C483        H495   1.087       .  S
C484        C485   1.479       .  S
C484        H496   1.086       .  S
C485        C486   1.404       .  A
C485        C490   1.406       .  A
C486        C487   1.400       .  A
C486        H497   1.083       .  S
C487        C488   1.401       .  A
C487        H498   1.083       .  S
C488        C489   1.398       .  A
C489        C490   1.393       .  A
C489        H499   1.082       .  S
C490        H500   1.083       .  S
C501        C502   1.402       .  A
C501        C506   1.405       .  A
C502        C503   1.393       .  A
C502        H515   1.080       .  S
C503        C504   1.402       .  A
C503        H516   1.084       .  S
C504        C507   1.482       .  S
C504        C505   1.408       .  A
C505        C506   1.399       .  A
C505        H517   1.081       .  S
C506        H518   1.083       .  S
C507        C508   1.346       .  D
C507        H519   1.086       .  S
C508        C509   1.483       .  S
C508        H520   1.085       .  S
C509        C510   1.404       .  A
C509        C514   1.405       .  A
C510        C511   1.401       .  A
C510        H521   1.083       .  S
C511        C512   1.406       .  A
C511        H522   1.083       .  S
C512        C513   1.405       .  A
C513        C514   1.393       .  A
C513        H523   1.083       .  S
C514        H524   1.082       .  S
C525        C526   1.402       .  A
C525        C530   1.403       .  A
C526        C527   1.394       .  A
C526        H539   1.083       .  S
C527        C528   1.403       .  A
C527        H540   1.084       .  S
C528        C531   1.481       .  S
C528        C529   1.408       .  A
C529        C530   1.397       .  A
C529        H541   1.081       .  S
C530        H542   1.082       .  S
C531        C532   1.346       .  D
C531        H543   1.087       .  S
C532        C533   1.481       .  S
C532        H544   1.085       .  S
C533        C534   1.403       .  A
C533        C538   1.405       .  A
C534        C535   1.401       .  A
C534        H545   1.083       .  S
C535        C536   1.406       .  A
C535        H546   1.083       .  S
C536        C537   1.405       .  A
C537        C538   1.391       .  A
C537        H547   1.083       .  S
C538        H548   1.082       .  S
C549        C550   1.398       .  A
C549        C554   1.401       .  A
C550        C551   1.394       .  A
C550        H563   1.078       .  S
C551        C552   1.404       .  A
C551        H564   1.083       .  S
C552        C555   1.490       .  S
C552        C553   1.412       .  A
C553        C554   1.400       .  A
C553        H565   1.079       .  S
C554        H566   1.083       .  S
C555        C556   1.347       .  D
C555        H567   1.085       .  S
C556        C557   1.486       .  S
C556        H568   1.082       .  S
C557        C558   1.403       .  A
C557        C562   1.409       .  A
C558        C559   1.397       .  A
C558        H569   1.083       .  S
C559        C560   1.403       .  A
C559        H570   1.082       .  S
C560        C561   1.403       .  A
C561        C562   1.398       .  A
C561        H571   1.083       .  S
C562        H572   1.082       .  S
C573        C574   1.403       .  A
C573        C578   1.401       .  A
C574        C575   1.401       .  A
C574        H587   1.083       .  S
C575        C576   1.405       .  A
C575        H588   1.083       .  S
C576        C579   1.485       .  S
C576        C577   1.407       .  A
C577        C578   1.398       .  A
C577        H589   1.083       .  S
C578        H590   1.083       .  S
C579        C580   1.346       .  D
C579        H591   1.087       .  S
C580        C581   1.484       .  S
C580        H592   1.087       .  S
C581        C582   1.404       .  A
C581        C586   1.406       .  A
C582        C583   1.400       .  A
C582        H593   1.083       .  S
C583        C584   1.404       .  A
C583        H594   1.083       .  S
C584        C585   1.404       .  A
C585        C586   1.399       .  A
C585        H595   1.083       .  S
C586        H596   1.083       .  S
C597        C598   1.401       .  A
C597        C602   1.400       .  A
C598        C599   1.400       .  A
C598        H611   1.083       .  S
C599        C600   1.404       .  A
C599        H612   1.083       .  S
C600        C603   1.480       .  S
C600        C601   1.406       .  A
C601        C602   1.396       .  A
C601        H613   1.083       .  S
C602        H614   1.084       .  S
C603        C604   1.344       .  D
C603        H615   1.087       .  S
C604        C605   1.480       .  S
C604        H616   1.087       .  S
C605        C606   1.403       .  A
C605        C610   1.405       .  A
C606        C607   1.399       .  A
C606        H617   1.083       .  S
C607        C608   1.404       .  A
C607        H618   1.083       .  S
C608        C609   1.405       .  A
C609        C610   1.398       .  A
C609        H619   1.083       .  S
C610        H620   1.083       .  S
C621        C622   1.405       .  A
C621        C626   1.400       .  A
C622        C623   1.400       .  A
C622        H635   1.083       .  S
C623        C624   1.404       .  A
C623        H636   1.083       .  S
C624        C627   1.483       .  S
C624        C625   1.407       .  A
C625        C626   1.392       .  A
C625        H637   1.082       .  S
C626        H638   1.084       .  S
C627        C628   1.345       .  D
C627        H639   1.085       .  S
C628        C629   1.481       .  S
C628        H640   1.087       .  S
C629        C630   1.400       .  A
C629        C634   1.409       .  A
C630        C631   1.390       .  A
C630        H641   1.084       .  S
C631        C632   1.405       .  A
C631        H642   1.083       .  S
C632        C633   1.406       .  A
C633        C634   1.403       .  A
C633        H643   1.083       .  S
C634        H644   1.081       .  S
C645        C646   1.402       .  A
C645        C650   1.403       .  A
C646        C647   1.396       .  A
C646        H659   1.083       .  S
C647        C648   1.403       .  A
C647        H660   1.083       .  S
C648        C651   1.486       .  S
C648        C649   1.409       .  A
C649        C650   1.399       .  A
C649        H661   1.081       .  S
C650        H662   1.083       .  S
C651        C652   1.347       .  D
C651        H663   1.084       .  S
C652        C653   1.489       .  S
C652        H664   1.085       .  S
C653        C654   1.404       .  A
C653        C658   1.411       .  A
C654        C655   1.396       .  A
C654        H665   1.083       .  S
C655        C656   1.403       .  A
C655        H666   1.083       .  S
C656        C657   1.401       .  A
C657        C658   1.399       .  A
C657        H667   1.083       .  S
C658        H668   1.080       .  S
C669        C670   1.402       .  A
C669        C674   1.398       .  A
C670        C671   1.398       .  A
C670        H683   1.083       .  S
C671        C672   1.404       .  A
C671        H684   1.083       .  S
C672        C675   1.482       .  S
C672        C673   1.408       .  A
C673        C674   1.392       .  A
C673        H685   1.081       .  S
C674        H686   1.084       .  S
C675        C676   1.346       .  D
C675        H687   1.084       .  S
C676        C677   1.481       .  S
C676        H688   1.085       .  S
C677        C678   1.403       .  A
C677        C682   1.408       .  A
C678        C679   1.394       .  A
C678        H689   1.084       .  S
C679        C680   1.401       .  A
C679        H690   1.083       .  S
C680        C681   1.403       .  A
C681        C682   1.397       .  A
C681        H691   1.083       .  S
C682        H692   1.081       .  S
C693        C694   1.403       .  A
C693        C698   1.403       .  A
C694        C695   1.399       .  A
C694        H707   1.083       .  S
C695        C696   1.403       .  A
C695        H708   1.083       .  S
C696        C699   1.480       .  S
C696        C697   1.406       .  A
C697        C698   1.395       .  A
C697        H709   1.083       .  S
C698        H710   1.083       .  S
C699        C700   1.344       .  D
C699        H711   1.087       .  S
C700        C701   1.479       .  S
C700        H712   1.087       .  S
C701        C702   1.403       .  A
C701        C706   1.408       .  A
C702        C703   1.397       .  A
C702        H713   1.083       .  S
C703        C704   1.402       .  A
C703        H714   1.083       .  S
C704        C705   1.398       .  A
C705        C706   1.396       .  A
C705        H715   1.083       .  S
C706        H716   1.082       .  S
C717        C718   1.399       .  A
C717        C722   1.402       .  A
C718        C719   1.393       .  A
C718        H731   1.083       .  S
C719        C720   1.404       .  A
C719        H732   1.083       .  S
C720        C723   1.483       .  S
C720        C721   1.409       .  A
C721        C722   1.399       .  A
C721        H733   1.080       .  S
C722        H734   1.083       .  S
C723        C724   1.347       .  D
C723        H735   1.086       .  S
C724        C725   1.484       .  S
C724        H736   1.084       .  S
C725        C726   1.404       .  A
C725        C730   1.406       .  A
C726        C727   1.402       .  A
C726        H737   1.083       .  S
C727        C728   1.406       .  A
C727        H738   1.083       .  S
C728        C729   1.404       .  A
C729        C730   1.391       .  A
C729        H739   1.083       .  S
C730        H740   1.082       .  S
C741        C742   1.407       .  A
C741        C746   1.405       .  A
C742        C743   1.400       .  A
C742        H755   1.083       .  S
C743        C744   1.403       .  A
C743        H756   1.083       .  S
C744        C747   1.487       .  S
C744        C745   1.407       .  A
C745        C746   1.397       .  A
C745        H757   1.082       .  S
C746        H758   1.083       .  S
C747        C748   1.347       .  D
C747        H759   1.084       .  S
C748        C749   1.487       .  S
C748        H760   1.086       .  S
C749        C750   1.403       .  A
C749        C754   1.411       .  A
C750        C751   1.394       .  A
C750        H761   1.083       .  S
C751        C752   1.401       .  A
C751        H762   1.083       .  S
C752        C753   1.404       .  A
C753        C754   1.403       .  A
C753        H763   1.083       .  S
C754        H764   1.081       .  S
C765        C766   1.401       .  A
C765        C770   1.402       .  A
C766        C767   1.396       .  A
C766        H779   1.080       .  S
C767        C768   1.402       .  A
C767        H780   1.083       .  S
C768        C771   1.479       .  S
C768        C769   1.407       .  A
C769        C770   1.397       .  A
C769        H781   1.082       .  S
C770        H782   1.083       .  S
C771        C772   1.344       .  D
C771        H783   1.086       .  S
C772        C773   1.480       .  S
C772        H784   1.086       .  S
C773        C774   1.404       .  A
C773        C778   1.407       .  A
C774        C775   1.397       .  A
C774        H785   1.083       .  S
C775        C776   1.400       .  A
C775        H786   1.083       .  S
C776        C777   1.402       .  A
C777        C778   1.395       .  A
C777        H787   1.083       .  S
C778        H788   1.082       .  S
C789        C790   1.403       .  A
C789        C794   1.400       .  A
C790        C791   1.398       .  A
C790        H803   1.082       .  S
C791        C792   1.404       .  A
C791        H804   1.083       .  S
C792        C795   1.485       .  S
C792        C793   1.408       .  A
C793        C794   1.395       .  A
C793        H805   1.081       .  S
C794        H806   1.078       .  S
C795        C796   1.347       .  D
C795        H807   1.085       .  S
C796        C797   1.483       .  S
C796        H808   1.084       .  S
C797        C798   1.404       .  A
C797        C802   1.408       .  A
C798        C799   1.396       .  A
C798        H809   1.083       .  S
C799        C800   1.400       .  A
C799        H810   1.084       .  S
C800        C801   1.402       .  A
C801        C802   1.396       .  A
C801        H811   1.083       .  S
C802        H812   1.081       .  S
C813        C814   1.397       .  A
C813        C818   1.399       .  A
C814        C815   1.391       .  A
C814        H827   1.081       .  S
C815        C816   1.402       .  A
C815        H828   1.084       .  S
C816        C819   1.476       .  S
C816        C817   1.410       .  A
C817        C818   1.397       .  A
C817        H829   1.081       .  S
C818        H830   1.083       .  S
C819        C820   1.342       .  D
C819        H831   1.088       .  S
C820        C821   1.474       .  S
C820        H832   1.085       .  S
C821        C822   1.401       .  A
C821        C826   1.405       .  A
C822        C823   1.398       .  A
C822        H833   1.083       .  S
C823        C824   1.406       .  A
C823        H834   1.083       .  S
C824        C825   1.402       .  A
C825        C826   1.389       .  A
C825        H835   1.083       .  S
C826        H836   1.083       .  S
C837        C838   1.404       .  A
C837        C842   1.401       .  A
C838        C839   1.399       .  A
C838        H851   1.083       .  S
C839        C840   1.403       .  A
C839        H852   1.083       .  S
C840        C843   1.482       .  S
C840        C841   1.406       .  A
C841        C842   1.397       .  A
C841        H853   1.083       .  S
C842        H854   1.080       .  S
C843        C844   1.345       .  D
C843        H855   1.086       .  S
C844        C845   1.482       .  S
C844        H856   1.087       .  S
C845        C846   1.403       .  A
C845        C850   1.407       .  A
C846        C847   1.399       .  A
C846        H857   1.083       .  S
C847        C848   1.404       .  A
C847        H858   1.083       .  S
C848        C849   1.404       .  A
C849        C850   1.399       .  A
C849        H859   1.083       .  S
C850        H860   1.083       .  S
C861        C862   1.400       .  A
C861        C866   1.405       .  A
C862        C863   1.394       .  A
C862        H875   1.083       .  S
C863        C864   1.404       .  A
C863        H876   1.083       .  S
C864        C867   1.484       .  S
C864        C865   1.408       .  A
C865        C866   1.399       .  A
C865        H877   1.081       .  S
C866        H878   1.082       .  S
C867        C868   1.348       .  D
C867        H879   1.086       .  S
C868        C869   1.486       .  S
C868        H880   1.085       .  S
C869        C870   1.405       .  A
C869        C874   1.405       .  A
C870        C871   1.403       .  A
C870        H881   1.083       .  S
C871        C872   1.406       .  A
C871        H882   1.083       .  S
C872        C873   1.405       .  A
C873        C874   1.391       .  A
C873        H883   1.083       .  S
C874        H884   1.082       .  S
C885        C886   1.402       .  A
C885        C890   1.397       .  A
C886        C887   1.397       .  A
C886        H899   1.083       .  S
C887        C888   1.404       .  A
C887        H900   1.083       .  S
C888        C891   1.482       .  S
C888        C889   1.408       .  A
C889        C890   1.393       .  A
C889        H901   1.081       .  S
C890        H902   1.079       .  S
C891        C892   1.347       .  D
C891        H903   1.082       .  S
C892        C893   1.485       .  S
C892        H904   1.085       .  S
C893        C894   1.405       .  A
C893        C898   1.410       .  A
C894        C895   1.394       .  A
C894        H905   1.083       .  S
C895        C896   1.400       .  A
C895        H906   1.083       .  S
C896        C897   1.402       .  A
C897        C898   1.396       .  A
C897        H907   1.083       .  S
C898        H908   1.079       .  S
C909        C910   1.403       .  A
C909        C914   1.401       .  A
C910        C911   1.398       .  A
C910        H923   1.083       .  S
C911        C912   1.404       .  A
C911        H924   1.083       .  S
C912        C915   1.489       .  S
C912        C913   1.410       .  A
C913        C914   1.399       .  A
C913        H925   1.081       .  S
C914        H926   1.083       .  S
C915        C916   1.348       .  D
C915        H927   1.083       .  S
C916        C917   1.491       .  S
C916        H928   1.085       .  S
C917        C918   1.404       .  A
C917        C922   1.412       .  A
C918        C919   1.395       .  A
C918        H929   1.083       .  S
C919        C920   1.398       .  A
C919        H930   1.079       .  S
C920        C921   1.402       .  A
C921        C922   1.402       .  A
C921        H931   1.083       .  S
C922        H932   1.080       .  S
C933        C934   1.404       .  A
C933        C938   1.399       .  A
C934        C935   1.398       .  A
C934        H947   1.082       .  S
C935        C936   1.403       .  A
C935        H948   1.083       .  S
C936        C939   1.483       .  S
C936        C937   1.407       .  A
C937        C938   1.395       .  A
C937        H949   1.082       .  S
C938        H950   1.078       .  S
C939        C940   1.346       .  D
C939        H951   1.084       .  S
C940        C941   1.483       .  S
C940        H952   1.086       .  S
C941        C942   1.404       .  A
C941        C946   1.409       .  A
C942        C943   1.394       .  A
C942        H953   1.083       .  S
C943        C944   1.397       .  A
C943        H954   1.080       .  S
C944        C945   1.401       .  A
C945        C946   1.398       .  A
C945        H955   1.083       .  S
C946        H956   1.080       .  S
C957        C958   1.400       .  A
C957        C962   1.403       .  A
C958        C959   1.393       .  A
C958        H971   1.084       .  S
C959        C960   1.404       .  A
C959        H972   1.083       .  S
C960        C963   1.487       .  S
C960        C961   1.411       .  A
C961        C962   1.402       .  A
C961        H973   1.080       .  S
C962        H974   1.083       .  S
C963        C964   1.347       .  D
C963        H975   1.086       .  S
C964        C965   1.488       .  S
C964        H976   1.084       .  S
C965        C966   1.404       .  A
C965        C970   1.407       .  A
C966        C967   1.401       .  A
C966        H977   1.083       .  S
C967        C968   1.407       .  A
C967        H978   1.083       .  S
C968        C969   1.405       .  A
C969        C970   1.395       .  A
C969        H979   1.083       .  S
C970        H980   1.082       .  S
C981        C982   1.401       .  A
C981        C986   1.399       .  A
C982        C983   1.398       .  A
C982        H995   1.083       .  S
C983        C984   1.404       .  A
C983        H996   1.084       .  S
C984        C987   1.482       .  S
C984        C985   1.408       .  A
C985        C986   1.395       .  A
C985        H997   1.082       .  S
C986        H998   1.082       .  S
C987        C988   1.344       .  D
C987        H999   1.086       .  S
C988        C989   1.479       .  S
C988       H1000   1.086       .  S
C989        C990   1.399       .  A
C989        C994   1.408       .  A
C990        C991   1.390       .  A
C990       H1001   1.084       .  S
C991        C992   1.405       .  A
C991       H1002   1.083       .  S
C992        C993   1.405       .  A
C993        C994   1.403       .  A
C993       H1003   1.083       .  S
C994       H1004   1.082       .  S
C1005      C1006   1.407       .  A
C1005      C1010   1.402       .  A
C1006      C1007   1.402       .  A
C1006      H1019   1.082       .  S
C1007      C1008   1.404       .  A
C1007      H1020   1.083       .  S
C1008      C1011   1.489       .  S
C1008      C1009   1.407       .  A
C1009      C1010   1.395       .  A
C1009      H1021   1.082       .  S
C1010      H1022   1.081       .  S
C1011      C1012   1.348       .  D
C1011      H1023   1.085       .  S
C1012      C1013   1.488       .  S
C1012      H1024   1.086       .  S
C1013      C1014   1.403       .  A
C1013      C1018   1.409       .  A
C1014      C1015   1.395       .  A
C1014      H1025   1.084       .  S
C1015      C1016   1.404       .  A
C1015      H1026   1.083       .  S
C1016      C1017   1.408       .  A
C1017      C1018   1.403       .  A
C1017      H1027   1.083       .  S
C1018      H1028   1.081       .  S
