geometry optimzed in LAMMPS
_audit_creation_date              2020-12-01 
_audit_creation_method            'lammps2cif' 
_symmetry_space_group_name_H-M    'P1' 
_symmetry_Int_Tables_number       1 
_symmetry_cell_setting            triclinic 
loop_ 
_symmetry_equiv_pos_as_xyz 
  x,y,z 
_cell_length_a                    24.24747597 
_cell_length_b                    24.248851600898725 
_cell_length_c                    25.1140285075734 
_cell_angle_alpha                 89.99453789271698 
_cell_angle_beta                  89.99532782353596 
_cell_angle_gamma                 89.98672456520657 
loop_ 
_atom_site_label 
_atom_site_type_symbol 
_atom_site_fract_x 
_atom_site_fract_y 
_atom_site_fract_z 
_atom_site_charge 
C1          C  0.37170437  0.38699884  0.38326422     0.44600
N2          N  0.42662011  0.40475467  0.44776605     0.03500
C3          C  0.43376827  0.64195451  0.60233757    -0.04300
H4          H  0.45816577  0.67592891  0.40051075     0.09000
C5          C  0.63698256  0.56370060  0.40768636    -0.04700
Co6        Co  0.39487765  0.50718409  0.50689416     0.74200
N7          N  0.44089256  0.60399463  0.44841643    -0.23900
Co8        Co  0.50320093  0.60098496  0.50537210     0.74100
C9          C  0.62064246  0.61595538  0.38392007     0.44700
N10         N  0.59032567  0.43155785  0.44534951     0.03100
N11         N  0.56405625  0.59606231  0.44648740     0.03300
N12         N  0.36379974  0.58012832  0.60175243    -0.44700
H13         H  0.31896327  0.46395980  0.40053864     0.09000
N14         N  0.39957076  0.56847971  0.44890725     0.03500
N15         N  0.56538685  0.59551724  0.56249528     0.03300
C16         C  0.62299412  0.61469935  0.62422608     0.44900
N17         N  0.54933118  0.39569010  0.44621669    -0.23300
C18         C  0.35694381  0.43770148  0.60524650    -0.04300
N19         N  0.41625454  0.36829094  0.40977290    -0.44400
N20         N  0.57744857  0.63303802  0.59904337    -0.44700
C21         C  0.37446863  0.38618340  0.62991170     0.44700
N22         N  0.40108823  0.56853430  0.56483922     0.03500
N23         N  0.55074685  0.39587124  0.56204515    -0.23400
N24         N  0.39078297  0.44576458  0.44850195    -0.23800
N25         N  0.59197620  0.43145120  0.56165843     0.03200
H26         H  0.53342377  0.32390341  0.60991585     0.09100
H27         H  0.67518788  0.53759372  0.60654036     0.09100
N28         N  0.44219687  0.60428988  0.56404221    -0.23900
N29         N  0.59951717  0.55469203  0.44601716    -0.23500
N30         N  0.42823697  0.40443244  0.56449902     0.03500
C31         C  0.38060926  0.62370466  0.38530483     0.44900
C32         C  0.55767397  0.35817887  0.40769491    -0.04800
N33         N  0.60110212  0.55436729  0.56154309    -0.23500
H34         H  0.67264376  0.53827941  0.39948721     0.09100
N35         N  0.36199168  0.57931732  0.41209338    -0.44700
H36         H  0.53233154  0.32231012  0.40017007     0.09100
C37         C  0.61087916  0.37620792  0.62539578     0.44800
C38         C  0.35415946  0.43800144  0.40905450    -0.04300
Co39       Co  0.48852906  0.39911933  0.50511542     0.73800
N40         N  0.62740228  0.42021589  0.40813781    -0.44400
C41         C  0.38228027  0.62525825  0.62746109     0.45000
N42         N  0.41826173  0.36741845  0.60216160    -0.44400
Co43       Co  0.59668626  0.49281645  0.50358847     0.73900
C44         C  0.63931656  0.56301747  0.59925867    -0.04800
C45         C  0.43238070  0.64072771  0.40941105    -0.04300
N46         N  0.39267346  0.44567982  0.56512288    -0.23900
N47         N  0.57575254  0.63419526  0.41034892    -0.44600
H48         H  0.45910232  0.67783690  0.60981638     0.09000
C49         C  0.55920694  0.35912584  0.60107714    -0.04700
Cl50       Cl  0.49582950  0.50006832  0.50522429    -0.47700
C51         C  0.60903309  0.37508384  0.38227666     0.44800
H52         H  0.32193769  0.46360660  0.61458816     0.09000
N53         N  0.62946157  0.42064148  0.59859541    -0.44500
C54         C  0.71594999  0.71012752  0.72557306     0.88700
C55         C  0.75591420  0.67827903  0.76199823    -0.51600
C56         C  0.78748395  0.71212378  0.79297457     0.11600
C57         C  0.77666942  0.77370426  0.78464852     0.22500
C58         C  0.68236998  0.74727826  0.76328860    -0.52300
C59         C  0.71471662  0.78050425  0.79411526     0.11700
C60         C  0.75255060  0.74986488  0.69350086    -0.51800
C61         C  0.78424205  0.78306019  0.72480845     0.12300
H62         H  0.75858949  0.63358260  0.76347366     0.16800
H63         H  0.80266714  0.80093668  0.80994834     0.02500
H64         H  0.63761817  0.74738965  0.76528943     0.17100
H65         H  0.75326286  0.75163147  0.65027859     0.16900
C66         C  0.70599108  0.28269554  0.72602190     0.88700
C67         C  0.74397007  0.24460107  0.69358791    -0.51600
C68         C  0.77660282  0.21210254  0.72469928     0.11600
C69         C  0.76848718  0.22041399  0.78460256     0.22500
C70         C  0.67345739  0.24406612  0.76312707    -0.52300
C71         C  0.70671592  0.21157385  0.79374205     0.11700
C72         C  0.74476014  0.31533589  0.76289792    -0.51800
C73         C  0.77735727  0.28220288  0.79355177     0.12300
H74         H  0.74502770  0.24352863  0.65034724     0.16800
H75         H  0.79527286  0.19372563  0.80969205     0.02500
H76         H  0.62872257  0.24267273  0.76509150     0.17100
H77         H  0.74613566  0.36007296  0.76471187     0.16900
C78         C  0.28617841  0.71959157  0.72675332     0.88700
C79         C  0.31906500  0.75800348  0.76365040    -0.51600
C80         C  0.28619779  0.79005734  0.79498733     0.11600
C81         C  0.22431039  0.78113137  0.78673931     0.22500
C82         C  0.24831320  0.68646322  0.76392922    -0.52300
C83         C  0.21610644  0.71915815  0.79526244     0.11700
C84         C  0.24742095  0.75777532  0.69519721    -0.51800
C85         C  0.21516601  0.79003069  0.72699777     0.12300
H86         H  0.36381727  0.75941655  0.76513618     0.16800
H87         H  0.19784755  0.80740694  0.81255298     0.02500
H88         H  0.24734851  0.64170203  0.76560717     0.17100
H89         H  0.24575440  0.75923109  0.65199835     0.16900
C90         C  0.28110593  0.28817885  0.72905908     0.88700
C91         C  0.24211636  0.31962463  0.76673870    -0.51600
C92         C  0.21036180  0.28547720  0.79718550     0.11600
C93         C  0.22019990  0.22402386  0.78750767     0.22500
C94         C  0.31456576  0.24960178  0.76537991    -0.52300
C95         C  0.28220839  0.21616210  0.79587123     0.11700
C96         C  0.24327041  0.24982244  0.69657651    -0.51800
C97         C  0.21138179  0.21642169  0.72765493     0.12300
H98         H  0.23975394  0.36429749  0.76898854     0.16800
H99         H  0.19414062  0.19661083  0.81259486     0.02500
H100        H  0.35932999  0.24896252  0.76700744     0.17100
H101        H  0.24155928  0.24945344  0.65335929     0.16900
N102        N  0.99753355  0.91595208  0.67940028    -0.34400
N103        N  0.08055345  0.00285534  0.68394651    -0.55000
N104        N  0.99463476  0.08683991  0.68176288    -0.34400
N105        N  0.91146631  0.99988825  0.68313238    -0.55000
C106        C  0.04288925  0.88629226  0.69228393     0.29200
C107        C  0.95300340  0.88472173  0.69143504     0.29200
C108        C  0.03895599  0.11743356  0.69583607     0.29200
C109        C  0.94906585  0.11581914  0.69525160     0.29200
C110        C  0.11391006  0.95881145  0.67685885     0.37800
C111        C  0.11228773  0.04815123  0.67741312     0.37800
C112        C  0.87985738  0.95479473  0.67499460     0.37800
C113        C  0.87839101  0.04409202  0.67587406     0.37800
C114        C  0.02697452  0.83506037  0.71156859    -0.19700
C115        C  0.97029873  0.83405867  0.71100439    -0.19700
C116        C  0.02133927  0.16689798  0.71787324    -0.19700
C117        C  0.96458698  0.16588394  0.71751141    -0.19700
C118        C  0.16717404  0.97618582  0.66589769    -0.20800
C119        C  0.16613260  0.03282313  0.66614497    -0.20800
C120        C  0.82633789  0.97036817  0.66272632    -0.20800
C121        C  0.82541126  0.02701107  0.66322306    -0.20800
C122        C  0.09819524  0.90356121  0.68591221    -0.16100
C123        C  0.89728588  0.90010509  0.68406438    -0.16100
C124        C  0.89403301  0.09910993  0.68613777    -0.16100
C125        C  0.09470621  0.10261126  0.68763046    -0.16100
H126        H  0.05339870  0.80184484  0.72493611     0.16800
H127        H  0.94478304  0.79993195  0.72384782     0.16800
H128        H  0.04669174  0.20024605  0.73277362     0.16800
H129        H  0.93785435  0.19831842  0.73207688     0.16800
H130        H  0.20326335  0.95070377  0.65971557     0.15100
H131        H  0.20129941  0.05963307  0.66028853     0.15100
H132        H  0.79139428  0.94367193  0.65533903     0.15100
H133        H  0.78956851  0.05265502  0.65635423     0.15100
H134        H  0.99701020  0.95458728  0.66152961     0.28300
H135        H  0.99540323  0.04939894  0.66169705     0.28300
C136        C  0.71462070  0.71079801  0.28265739     0.88700
C137        C  0.68192207  0.74938614  0.24560313    -0.51600
C138        C  0.71499688  0.78196866  0.21486431     0.11600
C139        C  0.77680536  0.77343691  0.22397162     0.22500
C140        C  0.75352786  0.67836193  0.24556009    -0.52300
C141        C  0.78593321  0.71172684  0.21483107     0.11700
C142        C  0.75248481  0.74896727  0.31498018    -0.51800
C143        C  0.78491667  0.78160509  0.28390810     0.12300
H144        H  0.63718589  0.75056851  0.24364140     0.16800
H145        H  0.80341997  0.80032593  0.19890964     0.02500
H146        H  0.75506505  0.63364327  0.24362198     0.17100
H147        H  0.75350188  0.75013554  0.35821974     0.16900
C148        C  0.28619773  0.71535327  0.28283901     0.88700
C149        C  0.24954209  0.68151944  0.24512886    -0.51600
C150        C  0.21682665  0.71366568  0.21376898     0.11600
C151        C  0.22362388  0.77570304  0.22256919     0.22500
C152        C  0.31865714  0.75486343  0.24652737    -0.52300
C153        C  0.28530256  0.78629602  0.21497614     0.11700
C154        C  0.24618202  0.75237039  0.31418557    -0.51800
C155        C  0.21360553  0.78398348  0.28216070     0.12300
H156        H  0.24918680  0.63674066  0.24364230     0.16800
H157        H  0.19676833  0.80151489  0.19669937     0.02500
H158        H  0.36337001  0.75755869  0.24573640     0.17100
H159        H  0.24403130  0.75364790  0.35737651     0.16900
N160        N  0.08732228  0.67447898  0.00508997    -0.34400
N161        N  0.00167359  0.67639733  0.08712036    -0.55000
N162        N  0.91705176  0.67473275  0.00424639    -0.34400
N163        N  0.00264506  0.67848872  0.92234487    -0.55000
C164        C  0.11878405  0.68305737  0.04879256     0.29200
C165        C  0.11931559  0.68427948  0.96196579     0.29200
C166        C  0.88563280  0.68524364  0.04770152     0.29200
C167        C  0.88615437  0.68619835  0.96067610     0.29200
C168        C  0.04623560  0.67175452  0.11908418     0.37800
C169        C  0.95683231  0.67190603  0.11874744     0.37800
C170        C  0.04754503  0.67526542  0.89067611     0.37800
C171        C  0.95820579  0.67525303  0.89007999     0.37800
C172        C  0.17180789  0.69742913  0.03318122    -0.19700
C173        C  0.17215099  0.69814650  0.97850604    -0.19700
C174        C  0.83381971  0.70280291  0.03144402    -0.19700
C175        C  0.83414871  0.70339566  0.97668388    -0.19700
C176        C  0.02961763  0.66491985  0.17153854    -0.20800
C177        C  0.97301645  0.66493689  0.17131950    -0.20800
C178        C  0.03153007  0.67064465  0.83781967    -0.20800
C179        C  0.97497887  0.67063534  0.83744117    -0.20800
C180        C  0.10158870  0.67731087  0.10234565    -0.16100
C181        C  0.10268415  0.68032996  0.90810014    -0.16100
C182        C  0.90284771  0.68044677  0.90686480    -0.16100
C183        C  0.90168614  0.67830254  0.10158665    -0.16100
H184        H  0.20674376  0.70665338  0.05849427     0.16800
H185        H  0.20738724  0.70801570  0.95380945     0.16800
H186        H  0.79928762  0.71425888  0.05642051     0.16800
H187        H  0.79994791  0.71543695  0.95153907     0.16800
H188        H  0.05554021  0.66123343  0.20645544     0.15100
H189        H  0.94682782  0.66136076  0.20605731     0.15100
H190        H  0.05781276  0.66851950  0.80303083     0.15100
H191        H  0.94922237  0.66864519  0.80229182     0.15100
H192        H  0.04704488  0.66094827  0.00471762     0.28300
H193        H  0.95641265  0.65832825  0.00428277     0.28300
C194        C  0.27943647  0.29032833  0.28205014     0.88700
C195        C  0.31174751  0.25207047  0.24426103    -0.51600
C196        C  0.27823745  0.21952418  0.21384422     0.11600
C197        C  0.21658047  0.22807984  0.22364625     0.22500
C198        C  0.24004222  0.32294717  0.24576888    -0.52300
C199        C  0.20728266  0.28988648  0.21526657     0.11700
C200        C  0.24201479  0.25154813  0.31454888    -0.51800
C201        C  0.20920166  0.21904546  0.28349535     0.12300
H202        H  0.35646223  0.25068803  0.24196565     0.16800
H203        H  0.18967845  0.20146213  0.19861161     0.02500
H204        H  0.23842721  0.36768915  0.24418872     0.17100
H205        H  0.24173182  0.24980073  0.35777061     0.16900
N206        N  0.91154035  0.99868087  0.33064039    -0.34400
N207        N  0.99780652  0.91414605  0.32555442    -0.55000
N208        N  0.08257535  0.99985829  0.32668167    -0.34400
N209        N  0.99634274  0.08435751  0.32515006    -0.55000
C210        C  0.88034475  0.95336457  0.32151567     0.29200
C211        C  0.87953454  0.04337098  0.32103428     0.29200
C212        C  0.11380661  0.95509304  0.31516007     0.29200
C213        C  0.11315347  0.04515431  0.31553970     0.29200
C214        C  0.95346264  0.88076902  0.33017311     0.37800
C215        C  0.04280130  0.88135898  0.32807098     0.37800
C216        C  0.95141756  0.11709909  0.32943836     0.37800
C217        C  0.04086779  0.11775420  0.32826410     0.37800
C218        C  0.82732703  0.96951878  0.30760998    -0.19700
C219        C  0.82682631  0.02615352  0.30730241    -0.19700
C220        C  0.16531940  0.97222427  0.29763716    -0.19700
C221        C  0.16491373  0.02890361  0.29790373    -0.19700
C222        C  0.97039544  0.82636313  0.33528053    -0.20800
C223        C  0.02693619  0.82674241  0.33400344    -0.20800
C224        C  0.96751298  0.17168913  0.33486357    -0.20800
C225        C  0.02408905  0.17209698  0.33421838    -0.20800
C226        C  0.89797981  0.89781515  0.32524869    -0.16100
C227        C  0.89616072  0.09927824  0.32424648    -0.16100
C228        C  0.09620236  0.10076156  0.32134872    -0.16100
C229        C  0.09769763  0.89921201  0.32054543    -0.16100
H230        H  0.79262244  0.94328344  0.29795673     0.16800
H231        H  0.79166936  0.05168424  0.29738763     0.16800
H232        H  0.19961552  0.94659329  0.28540907     0.16800
H233        H  0.19882444  0.05512965  0.28589116     0.16800
H234        H  0.94468149  0.79002390  0.33846602     0.15100
H235        H  0.05328334  0.79075507  0.33597115     0.15100
H236        H  0.94122706  0.20762836  0.33800795     0.15100
H237        H  0.04987871  0.20843733  0.33665895     0.15100
H238        H  0.95194123  0.99904193  0.34370126     0.28300
H239        H  0.04337900  0.99955196  0.34291032     0.28300
N240        N  0.32599073  0.91709419  0.00598098    -0.34400
N241        N  0.32405080  0.00256422  0.92396098    -0.55000
N242        N  0.32206428  0.08799988  0.00556260    -0.34400
N243        N  0.31646006  0.00254397  0.08747877    -0.55000
C244        C  0.31533789  0.88637414  0.96223625     0.29200
C245        C  0.31289153  0.88619983  0.04898229     0.29200
C246        C  0.31206070  0.11871241  0.96166622     0.29200
C247        C  0.30831585  0.11886738  0.04837882     0.29200
C248        C  0.33203694  0.95797628  0.89268891     0.37800
C249        C  0.33066629  0.04721896  0.89244401     0.37800
C250        C  0.32254771  0.95808754  0.11944953     0.37800
C251        C  0.31986694  0.04743646  0.11925074     0.37800
C252        C  0.29615359  0.83483966  0.97767755    -0.19700
C253        C  0.29470986  0.83469865  0.03240977    -0.19700
C254        C  0.29271065  0.17026704  0.97683844    -0.19700
C255        C  0.29038852  0.17037394  0.03152022    -0.19700
C256        C  0.34345749  0.97436216  0.84094733    -0.20800
C257        C  0.34256863  0.03091808  0.84079255    -0.20800
C258        C  0.32900001  0.97480629  0.17187651    -0.20800
C259        C  0.32721899  0.03135801  0.17175355    -0.20800
C260        C  0.32375974  0.90291149  0.90887628    -0.16100
C261        C  0.31813791  0.90264967  0.10273064    -0.16100
C262        C  0.31299039  0.10256851  0.10224240    -0.16100
C263        C  0.32111331  0.10216425  0.90840735    -0.16100
H264        H  0.28416679  0.80088341  0.95219916     0.16800
H265        H  0.28126782  0.80068286  0.05712941     0.16800
H266        H  0.28126615  0.20430723  0.95122402     0.16800
H267        H  0.27675145  0.20447875  0.05601798     0.16800
H268        H  0.35047777  0.94827349  0.80664004     0.15100
H269        H  0.34879834  0.05702941  0.80635720     0.15100
H270        H  0.33366349  0.94894739  0.20671821     0.15100
H271        H  0.33035951  0.05761702  0.20646654     0.15100
H272        H  0.34348913  0.95618644  0.00657754     0.28300
H273        H  0.33948758  0.04892294  0.00639527     0.28300
N274        N  0.90641842  0.32815107  0.00364680    -0.34400
N275        N  0.99164915  0.32596210  0.08672892    -0.55000
N276        N  0.07739479  0.32547806  0.00523358    -0.34400
N277        N  0.99233047  0.31968987  0.92230072    -0.55000
C278        C  0.87482248  0.31921647  0.04727213     0.29200
C279        C  0.87520822  0.31660886  0.96032055     0.29200
C280        C  0.10852259  0.31659282  0.04915730     0.29200
C281        C  0.10894738  0.31358641  0.96232510     0.29200
C282        C  0.94671534  0.33135860  0.11813071     0.37800
C283        C  0.03613733  0.33068789  0.11887579     0.37800
C284        C  0.94798618  0.32262721  0.88978770     0.37800
C285        C  0.03739366  0.32173673  0.89067664     0.37800
C286        C  0.82237414  0.30324397  0.03133536    -0.19700
C287        C  0.82260256  0.30166034  0.97663190    -0.19700
C288        C  0.16091645  0.29977021  0.03385892    -0.19700
C289        C  0.16118461  0.29788780  0.97917505    -0.19700
C290        C  0.96278632  0.33898697  0.17064530    -0.20800
C291        C  0.01935013  0.33858586  0.17110503    -0.20800
C292        C  0.96498911  0.32559056  0.83711759    -0.20800
C293        C  0.02154517  0.32505241  0.83768447    -0.20800
C294        C  0.89148309  0.32518639  0.10109049    -0.16100
C295        C  0.89240093  0.31919644  0.90644401    -0.16100
C296        C  0.09259508  0.31745290  0.90835153    -0.16100
C297        C  0.09154942  0.32404389  0.10261893    -0.16100
H298        H  0.78758926  0.29304482  0.05649018     0.16800
H299        H  0.78807868  0.28991773  0.95177027     0.16800
H300        H  0.19539390  0.28952187  0.05939690     0.16800
H301        H  0.19588510  0.28584725  0.95466399     0.16800
H302        H  0.93650094  0.34348402  0.20521319     0.15100
H303        H  0.04513195  0.34267815  0.20606734     0.15100
H304        H  0.93935495  0.32725842  0.80186496     0.15100
H305        H  0.04794500  0.32618234  0.80294000     0.15100
H306        H  0.94656662  0.34273196  0.00344897     0.28300
H307        H  0.03760189  0.34081838  0.00440804     0.28300
C308        C  0.70772411  0.28265416  0.28279072     0.88700
C309        C  0.74551104  0.31686891  0.24626481    -0.51600
C310        C  0.77905531  0.28514187  0.21515962     0.11600
C311        C  0.77219705  0.22293207  0.22346992     0.22500
C312        C  0.67651104  0.24345709  0.24516919    -0.52300
C313        C  0.71070216  0.21226665  0.21421180     0.11700
C314        C  0.74688077  0.24526450  0.31476433    -0.51800
C315        C  0.78054735  0.21407712  0.28334275     0.12300
H316        H  0.74530953  0.36163988  0.24473341     0.16800
H317        H  0.79974875  0.19737285  0.19805972     0.02500
H318        H  0.63184838  0.24065209  0.24323609     0.17100
H319        H  0.74768203  0.24341399  0.35797898     0.16900
N320        N  0.67131888  0.08129893  0.00411487    -0.34400
N321        N  0.67512484  0.99601337  0.08632110    -0.55000
N322        N  0.67318727  0.91040542  0.00383966    -0.34400
N323        N  0.67571761  0.99587097  0.92152789    -0.55000
C324        C  0.67881992  0.11346050  0.04758814     0.29200
C325        C  0.67802101  0.11342830  0.96053348     0.29200
C326        C  0.68392109  0.87927923  0.04736301     0.29200
C327        C  0.68420410  0.87925019  0.96039160     0.29200
C328        C  0.67048342  0.04068068  0.11824113     0.37800
C329        C  0.67108327  0.95117358  0.11803997     0.37800
C330        C  0.66944999  0.04054669  0.88989203     0.37800
C331        C  0.67136570  0.95105783  0.88977496     0.37800
C332        C  0.68932025  0.16718408  0.03134292    -0.19700
C333        C  0.68881725  0.16716692  0.97656802    -0.19700
C334        C  0.70084419  0.82715242  0.03130914    -0.19700
C335        C  0.70106416  0.82714833  0.97655718    -0.19700
C336        C  0.66386331  0.02405600  0.17070549    -0.20800
C337        C  0.66414433  0.96745465  0.17057211    -0.20800
C338        C  0.66170457  0.02395997  0.83754095    -0.20800
C339        C  0.66293933  0.96735710  0.83746769    -0.20800
C340        C  0.67552341  0.09619199  0.10146669    -0.16100
C341        C  0.67358487  0.09610689  0.90675776    -0.16100
C342        C  0.67826985  0.89581570  0.90659211    -0.16100
C343        C  0.67796220  0.89595553  0.10114676    -0.16100
H344        H  0.69653383  0.20286680  0.05629138     0.16800
H345        H  0.69562421  0.20282782  0.95147884     0.16800
H346        H  0.71216374  0.79265491  0.05639429     0.16800
H347        H  0.71258655  0.79265711  0.95155207     0.16800
H348        H  0.65995778  0.04998701  0.20558181     0.15100
H349        H  0.66069762  0.94131221  0.20535408     0.15100
H350        H  0.65612846  0.04993271  0.80289817     0.15100
H351        H  0.65860696  0.94122748  0.80277398     0.15100
H352        H  0.66067797  0.04016903  0.00409365     0.28300
H353        H  0.65716963  0.94996967  0.00380856     0.28300
C354        C  0.68172356  0.13802690  0.14241057    -0.11100
C355        C  0.69172704  0.17240152  0.17577641    -0.12600
C356        C  0.81678921  0.30698985  0.17619888    -0.11100
C357        C  0.84984391  0.31845278  0.14207389    -0.12600
C358        C  0.85431520  0.14121525  0.31590085    -0.11100
C359        C  0.82017743  0.17518847  0.30385534    -0.12600
C360        C  0.13324003  0.31944496  0.14381935    -0.11100
C361        C  0.16755830  0.30999270  0.17733463    -0.12600
C362        C  0.30688493  0.14478223  0.14269195    -0.11100
C363        C  0.29761562  0.17959779  0.17576280    -0.12600
C364        C  0.17101575  0.17867803  0.30391036    -0.11100
C365        C  0.13758820  0.14346765  0.31444733    -0.12600
C366        C  0.17790588  0.69242352  0.17600610    -0.11100
C367        C  0.14338816  0.68226653  0.14308766    -0.12600
C368        C  0.30487386  0.82605109  0.17690669    -0.11100
C369        C  0.31367122  0.86051606  0.14341371    -0.12600
C370        C  0.13950250  0.85721802  0.31265457    -0.11100
C371        C  0.17363447  0.82290659  0.30170792    -0.12600
C372        C  0.82517878  0.69216326  0.17605508    -0.11100
C373        C  0.85939551  0.68312641  0.14226861    -0.12600
C374        C  0.69483988  0.82065158  0.17598564    -0.11100
C375        C  0.68450052  0.85427060  0.14206879    -0.12600
C376        C  0.82355175  0.82087017  0.30491577    -0.11100
C377        C  0.85695741  0.85528505  0.31719263    -0.12600
C378        C  0.13668344  0.14436348  0.69576046    -0.11100
C379        C  0.17148791  0.17787866  0.70711950    -0.12600
C380        C  0.30338744  0.17706097  0.83369938    -0.11100
C381        C  0.31458012  0.14328295  0.86712132    -0.12600
C382        C  0.17023413  0.30412365  0.83525878    -0.14100
C383        C  0.13521320  0.31261844  0.86823706    -0.12600
C384        C  0.17809301  0.69826351  0.83409787    -0.11100
C385        C  0.14459463  0.68712797  0.86770762    -0.12600
C386        C  0.17582233  0.82948421  0.70690725    -0.11100
C387        C  0.14139206  0.86316182  0.69479949    -0.12600
C388        C  0.30683249  0.82844297  0.83369444    -0.11100
C389        C  0.31763540  0.86172824  0.86765066    -0.12600
C390        C  0.68686721  0.17228434  0.83216707    -0.11100
C391        C  0.67766925  0.13805172  0.86580133    -0.12600
C392        C  0.81600864  0.17325986  0.70406366    -0.11100
C393        C  0.85084048  0.13972769  0.69304190    -0.12600
C394        C  0.81662713  0.30229116  0.83194522    -0.11100
C395        C  0.85064604  0.31259542  0.86552579    -0.12600
C396        C  0.69389805  0.81944645  0.83245513    -0.11100
C397        C  0.68393737  0.85380678  0.86580710    -0.12600
C398        C  0.82689728  0.69315187  0.83177354    -0.11100
C399        C  0.86088508  0.68482271  0.86589126    -0.12600
C400        C  0.82191030  0.82371479  0.70420610    -0.11100
C401        C  0.85532462  0.85836551  0.69220503    -0.12600
C402        C  0.65450195  0.64666711  0.66164645    -0.11100
C403        C  0.68176285  0.67457223  0.69151405    -0.12600
C404        C  0.67090581  0.31770874  0.69247786    -0.11100
C405        C  0.64303862  0.34527898  0.66294146    -0.12600
C406        C  0.32119603  0.68493028  0.69280257    -0.11100
C407        C  0.34961797  0.65721192  0.66386801    -0.12600
C408        C  0.65199547  0.64828781  0.34654608    -0.11100
C409        C  0.67962659  0.67584508  0.31662693    -0.12600
C410        C  0.34321129  0.35323918  0.66693559    -0.11100
C411        C  0.31562428  0.32438241  0.69577626    -0.12600
C412        C  0.34874215  0.65424382  0.34737042    -0.11100
C413        C  0.32114477  0.68132789  0.31727501    -0.12600
C414        C  0.64193918  0.34332431  0.34560526    -0.11100
C415        C  0.67116169  0.31628194  0.31660588    -0.12600
C416        C  0.34115449  0.35470689  0.34518592    -0.11100
C417        C  0.31443732  0.32586288  0.31557617    -0.12600
loop_ 
_geom_bond_atom_site_label_1 
_geom_bond_atom_site_label_2 
_geom_bond_distance 
_geom_bond_site_symmetry_2 
_ccdc_geom_bond_type 
C1           N19   1.347       .  A
C1           C38   1.459       .  S
C1          C416   1.441       .  S
N2           N19   1.325       .  A
N2           N24   1.321       .  A
N2          Co39   2.085       .  S
C3           N28   1.342       .  A
C3           C41   1.456       .  S
C3           H48   1.082       .  S
H4           C45   1.082       .  S
C5           N29   1.341       .  A
C5            C9   1.456       .  S
C5           H34   1.082       .  S
Co6          N24   2.093       .  S
Co6          N14   2.084       .  S
Co6          N46   2.089       .  S
Co6          N22   2.087       .  S
Co6         Cl50   2.454       .  S
N7           C45   1.340       .  A
N7           N14   1.321       .  A
N7           Co8   2.082       .  S
Co8          N11   2.092       .  S
Co8          N28   2.089       .  S
Co8          N15   2.086       .  S
Co8         Cl50   2.454       .  S
C9           N47   1.349       .  A
C9          C408   1.440       .  S
N10          N17   1.321       .  A
N10          N40   1.326       .  A
N10         Co43   2.090       .  S
N11          N29   1.321       .  A
N11          N47   1.326       .  A
N12          C41   1.347       .  A
N12          N22   1.325       .  A
H13          C38   1.082       .  S
N14          N35   1.324       .  A
N15          N33   1.321       .  A
N15          N20   1.325       .  A
C16          N20   1.348       .  A
C16          C44   1.456       .  S
C16         C402   1.438       .  S
N17          C32   1.343       .  A
N17         Co39   2.090       .  S
C18          N46   1.343       .  A
C18          C21   1.458       .  S
C18          H52   1.082       .  S
C21          N42   1.349       .  A
C21         C410   1.441       .  S
N22          N28   1.321       .  A
N23          C49   1.340       .  A
N23          N25   1.321       .  A
N23         Co39   2.080       .  S
N24          C38   1.344       .  A
N25          N53   1.325       .  A
N25         Co43   2.087       .  S
H26          C49   1.082       .  S
H27          C44   1.082       .  S
N29         Co43   2.085       .  S
N30          N42   1.326       .  A
N30          N46   1.321       .  A
N30         Co39   2.092       .  S
C31          N35   1.347       .  A
C31          C45   1.454       .  S
C31         C412   1.433       .  S
C32          C51   1.458       .  S
C32          H36   1.082       .  S
N33          C44   1.342       .  A
N33         Co43   2.088       .  S
C37          N53   1.348       .  A
C37          C49   1.454       .  S
C37         C405   1.435       .  S
Co39        Cl50   2.454       .  S
N40          C51   1.348       .  A
C41         C407   1.436       .  S
Co43        Cl50   2.452       .  S
C51         C414   1.441       .  S
C54          C55   1.540       .  S
C54          C60   1.538       .  S
C54          C58   1.540       .  S
C54         C403   1.471       .  S
C55          H62   1.086       .  S
C55          C56   1.366       .  D
C56          C57   1.530       .  S
C56         C398   1.440       .  S
C57          C61   1.531       .  S
C57          C59   1.530       .  S
C57          H63   1.112       .  S
C58          H64   1.086       .  S
C58          C59   1.365       .  D
C59         C396   1.440       .  S
C60          H65   1.086       .  S
C60          C61   1.363       .  D
C61         C400   1.440       .  S
C66          C67   1.538       .  S
C66          C72   1.539       .  S
C66          C70   1.539       .  S
C66         C404   1.468       .  S
C67          H74   1.087       .  S
C67          C68   1.363       .  D
C68          C69   1.531       .  S
C68         C392   1.438       .  S
C69          C73   1.530       .  S
C69          C71   1.530       .  S
C69          H75   1.112       .  S
C70          H76   1.086       .  S
C70          C71   1.365       .  D
C71         C390   1.439       .  S
C72          H77   1.086       .  S
C72          C73   1.365       .  D
C73         C394   1.440       .  S
C78          C79   1.537       .  S
C78          C84   1.539       .  S
C78          C82   1.536       .  S
C78         C406   1.468       .  S
C79          H86   1.086       .  S
C79          C80   1.363       .  D
C80          C81   1.530       .  S
C80         C388   1.436       .  S
C81          C85   1.532       .  S
C81          C83   1.531       .  S
C81          H87   1.113       .  S
C82          H88   1.086       .  S
C82          C83   1.363       .  D
C83         C384   1.434       .  S
C84          H89   1.086       .  S
C84          C85   1.364       .  D
C85         C386   1.442       .  S
C90          C91   1.540       .  S
C90          C96   1.540       .  S
C90          C94   1.538       .  S
C90         C411   1.473       .  S
C91          H98   1.086       .  S
C91          C92   1.365       .  D
C92          C93   1.529       .  S
C92         C382   1.437       .  S
C93          C97   1.529       .  S
C93          C95   1.530       .  S
C93          H99   1.113       .  S
C94         H100   1.086       .  S
C94          C95   1.364       .  D
C95         C380   1.437       .  S
C96         H101   1.086       .  S
C96          C97   1.365       .  D
C97         C379   1.441       .  S
N102        C107   1.353       .  A
N102        C106   1.353   1_655  A
N102        H134   1.039       .  S
N103        C110   1.351   1_545  A
N103        C111   1.351       .  A
N104        C109   1.352       .  A
N104        C108   1.353   1_655  A
N104        H135   1.039       .  S
N105        C112   1.351       .  A
N105        C113   1.351   1_565  A
C106        C114   1.388       .  A
C106        C122   1.414       .  A
C107        C123   1.414       .  A
C107        C115   1.388       .  A
C108        C116   1.388       .  A
C108        C125   1.414       .  A
C109        C124   1.413       .  A
C109        C117   1.389       .  A
C110        C122   1.411       .  A
C110        C118   1.386       .  A
C111        C125   1.411       .  A
C111        C119   1.387       .  A
C112        C120   1.386       .  A
C112        C123   1.410       .  A
C113        C121   1.387       .  A
C113        C124   1.411       .  A
C114        H126   1.082       .  S
C114        C115   1.375   1_455  A
C115        H127   1.082       .  S
C116        H128   1.083       .  S
C116        C117   1.376   1_455  A
C117        H129   1.083       .  S
C118        H130   1.082       .  S
C118        C119   1.374   1_565  A
C119        H131   1.082       .  S
C120        H132   1.082       .  S
C120        C121   1.374   1_565  A
C121        H133   1.082       .  S
C122        C387   1.451       .  S
C123        C401   1.450       .  S
C124        C393   1.448       .  S
C125        C378   1.450       .  S
C136        C137   1.539       .  S
C136        C142   1.536       .  S
C136        C140   1.542       .  S
C136        C409   1.472       .  S
C137        H144   1.086       .  S
C137        C138   1.365       .  D
C138        C139   1.530       .  S
C138        C374   1.439       .  S
C139        C143   1.531       .  S
C139        C141   1.530       .  S
C139        H145   1.113       .  S
C140        H146   1.086       .  S
C140        C141   1.367       .  D
C141        C372   1.442       .  S
C142        H147   1.087       .  S
C142        C143   1.362       .  D
C143        C376   1.436       .  S
C148        C149   1.536       .  S
C148        C154   1.538       .  S
C148        C152   1.539       .  S
C148        C413   1.465       .  S
C149        H156   1.087       .  S
C149        C150   1.363       .  D
C150        C151   1.529       .  S
C150        C366   1.434       .  S
C151        C155   1.529       .  S
C151        C153   1.529       .  S
C151        H157   1.113       .  S
C152        H158   1.086       .  S
C152        C153   1.365       .  D
C153        C368   1.438       .  S
C154        H159   1.086       .  S
C154        C155   1.363       .  D
C155        C371   1.439       .  S
N160        C165   1.353   1_554  A
N160        C164   1.353       .  A
N160        H192   1.030       .  S
N161        C168   1.351       .  A
N161        C169   1.351   1_455  A
N162        C167   1.355   1_554  A
N162        C166   1.355       .  A
N162        H193   1.034       .  S
N163        C170   1.350       .  A
N163        C171   1.351   1_455  A
C164        C172   1.389       .  A
C164        C180   1.415       .  A
C165        C181   1.415       .  A
C165        C173   1.388       .  A
C166        C174   1.388       .  A
C166        C183   1.418       .  A
C167        C182   1.418       .  A
C167        C175   1.388       .  A
C168        C180   1.413       .  A
C168        C176   1.387       .  A
C169        C183   1.413       .  A
C169        C177   1.388       .  A
C170        C178   1.388       .  A
C170        C181   1.412       .  A
C171        C179   1.388       .  A
C171        C182   1.412       .  A
C172        H184   1.083       .  S
C172        C173   1.373   1_554  A
C173        H185   1.083       .  S
C174        H186   1.082       .  S
C174        C175   1.375   1_554  A
C175        H187   1.082       .  S
C176        H188   1.083       .  S
C176        C177   1.372   1_455  A
C177        H189   1.082       .  S
C178        H190   1.083       .  S
C178        C179   1.371   1_455  A
C179        H191   1.082       .  S
C180        C367   1.445       .  S
C181        C385   1.445       .  S
C182        C399   1.451       .  S
C183        C373   1.452       .  S
C194        C195   1.541       .  S
C194        C200   1.541       .  S
C194        C198   1.539       .  S
C194        C417   1.474       .  S
C195        H202   1.086       .  S
C195        C196   1.366       .  D
C196        C197   1.529       .  S
C196        C363   1.440       .  S
C197        C201   1.529       .  S
C197        C199   1.530       .  S
C197        H203   1.113       .  S
C198        H204   1.086       .  S
C198        C199   1.364       .  D
C199        C361   1.440       .  S
C200        H205   1.086       .  S
C200        C201   1.365       .  D
C201        C364   1.442       .  S
N206        C211   1.354   1_565  A
N206        C210   1.354       .  A
N206        H238   1.033       .  S
N207        C214   1.351       .  A
N207        C215   1.351   1_655  A
N208        C213   1.355   1_565  A
N208        C212   1.355       .  A
N208        H239   1.034       .  S
N209        C216   1.352       .  A
N209        C217   1.352   1_655  A
C210        C218   1.388       .  A
C210        C226   1.416       .  A
C211        C227   1.417       .  A
C211        C219   1.388       .  A
C212        C220   1.388       .  A
C212        C229   1.417       .  A
C213        C228   1.417       .  A
C213        C221   1.388       .  A
C214        C226   1.413       .  A
C214        C222   1.388       .  A
C215        C229   1.413       .  A
C215        C223   1.387       .  A
C216        C224   1.387       .  A
C216        C227   1.414       .  A
C217        C225   1.387       .  A
C217        C228   1.414       .  A
C218        H230   1.083       .  S
C218        C219   1.373   1_565  A
C219        H231   1.082       .  S
C220        H232   1.083       .  S
C220        C221   1.374   1_565  A
C221        H233   1.082       .  S
C222        H234   1.083       .  S
C222        C223   1.371   1_655  A
C223        H235   1.083       .  S
C224        H236   1.082       .  S
C224        C225   1.372   1_655  A
C225        H237   1.082       .  S
C226        C377   1.447       .  S
C227        C358   1.452       .  S
C228        C365   1.453       .  S
C229        C370   1.450       .  S
N240        C245   1.352       .  A
N240        C244   1.352   1_554  A
N240        H272   1.039       .  S
N241        C248   1.350   1_545  A
N241        C249   1.351       .  A
N242        C247   1.352       .  A
N242        C246   1.352   1_554  A
N242        H273   1.038       .  S
N243        C250   1.352   1_545  A
N243        C251   1.352       .  A
C244        C252   1.389       .  A
C244        C260   1.414       .  A
C245        C261   1.413       .  A
C245        C253   1.388       .  A
C246        C254   1.389       .  A
C246        C263   1.414       .  A
C247        C262   1.414       .  A
C247        C255   1.388       .  A
C248        C260   1.410       .  A
C248        C256   1.387       .  A
C249        C263   1.410       .  A
C249        C257   1.386       .  A
C250        C258   1.387       .  A
C250        C261   1.412       .  A
C251        C259   1.386       .  A
C251        C262   1.413       .  A
C252        H264   1.083       .  S
C252        C253   1.375   1_556  A
C253        H265   1.083       .  S
C254        H266   1.083       .  S
C254        C255   1.374   1_556  A
C255        H267   1.082       .  S
C256        H268   1.082       .  S
C256        C257   1.372   1_565  A
C257        H269   1.082       .  S
C258        H270   1.082       .  S
C258        C259   1.372   1_565  A
C259        H271   1.082       .  S
C260        C389   1.446       .  S
C261        C369   1.449       .  S
C262        C362   1.450       .  S
C263        C381   1.447       .  S
N274        C279   1.355   1_554  A
N274        C278   1.354       .  A
N274        H306   1.036       .  S
N275        C282   1.351       .  A
N275        C283   1.352   1_655  A
N276        C281   1.353   1_554  A
N276        C280   1.354       .  A
N276        H307   1.034       .  S
N277        C284   1.352       .  A
N277        C285   1.352   1_655  A
C278        C286   1.388       .  A
C278        C294   1.418       .  A
C279        C295   1.417       .  A
C279        C287   1.388       .  A
C280        C288   1.388       .  A
C280        C297   1.416       .  A
C281        C296   1.415       .  A
C281        C289   1.389       .  A
C282        C294   1.414       .  A
C282        C290   1.388       .  A
C283        C297   1.413       .  A
C283        C291   1.387       .  A
C284        C292   1.387       .  A
C284        C295   1.414       .  A
C285        C293   1.388       .  A
C285        C296   1.414       .  A
C286        H298   1.082       .  S
C286        C287   1.374   1_554  A
C287        H299   1.083       .  S
C288        H300   1.083       .  S
C288        C289   1.374   1_554  A
C289        H301   1.083       .  S
C290        H302   1.082       .  S
C290        C291   1.372   1_655  A
C291        H303   1.082       .  S
C292        H304   1.083       .  S
C292        C293   1.371   1_655  A
C293        H305   1.083       .  S
C294        C357   1.451       .  S
C295        C395   1.452       .  S
C296        C383   1.448       .  S
C297        C360   1.451       .  S
C308        C309   1.539       .  S
C308        C314   1.539       .  S
C308        C312   1.539       .  S
C308        C415   1.474       .  S
C309        H316   1.086       .  S
C309        C310   1.365       .  D
C310        C311   1.532       .  S
C310        C356   1.441       .  S
C311        C315   1.532       .  S
C311        C313   1.531       .  S
C311        H317   1.112       .  S
C312        H318   1.086       .  S
C312        C313   1.365       .  D
C313        C355   1.442       .  S
C314        H319   1.086       .  S
C314        C315   1.364       .  D
C315        C359   1.441       .  S
N320        C325   1.353   1_554  A
N320        C324   1.354       .  A
N320        H352   1.030       .  S
N321        C328   1.352   1_565  A
N321        C329   1.351       .  A
N322        C327   1.354   1_554  A
N322        C326   1.354       .  A
N322        H353   1.035       .  S
N323        C330   1.352   1_565  A
N323        C331   1.352       .  A
C324        C332   1.389       .  A
C324        C340   1.419       .  A
C325        C341   1.418       .  A
C325        C333   1.389       .  A
C326        C334   1.389       .  A
C326        C343   1.417       .  A
C327        C342   1.417       .  A
C327        C335   1.388       .  A
C328        C340   1.416       .  A
C328        C336   1.387       .  A
C329        C343   1.414       .  A
C329        C337   1.387       .  A
C330        C338   1.388       .  A
C330        C341   1.416       .  A
C331        C339   1.387       .  A
C331        C342   1.414       .  A
C332        H344   1.083       .  S
C332        C333   1.376   1_554  A
C333        H345   1.083       .  S
C334        H346   1.083       .  S
C334        C335   1.375   1_554  A
C335        H347   1.083       .  S
C336        H348   1.082       .  S
C336        C337   1.373   1_545  A
C337        H349   1.082       .  S
C338        H350   1.082       .  S
C338        C339   1.373   1_545  A
C339        H351   1.083       .  S
C340        C354   1.452       .  S
C341        C391   1.450       .  S
C342        C397   1.451       .  S
C343        C375   1.450       .  S
C354        C355   1.207       .  T
C356        C357   1.206       .  T
C358        C359   1.206       .  T
C360        C361   1.206       .  T
C362        C363   1.205       .  T
C364        C365   1.207       .  T
C366        C367   1.202       .  T
C368        C369   1.205       .  T
C370        C371   1.205       .  T
C372        C373   1.207       .  T
C374        C375   1.205       .  T
C376        C377   1.203       .  T
C378        C379   1.206       .  T
C380        C381   1.204       .  T
C382        C383   1.204       .  T
C384        C385   1.202       .  T
C386        C387   1.207       .  T
C388        C389   1.203       .  T
C390        C391   1.205       .  T
C392        C393   1.204       .  T
C394        C395   1.206       .  T
C396        C397   1.206       .  T
C398        C399   1.206       .  T
C400        C401   1.206       .  T
C402        C403   1.207       .  T
C404        C405   1.206       .  T
C406        C407   1.206       .  T
C408        C409   1.208       .  T
C410        C411   1.209       .  T
C412        C413   1.204       .  T
C414        C415   1.209       .  T
C416        C417   1.209       .  T
