geometry optimzed in LAMMPS
_audit_creation_date              2020-11-30 
_audit_creation_method            'lammps2cif' 
_symmetry_space_group_name_H-M    'P1' 
_symmetry_Int_Tables_number       1 
_symmetry_cell_setting            triclinic 
loop_ 
_symmetry_equiv_pos_as_xyz 
  x,y,z 
_cell_length_a                    28.738946445464347 
_cell_length_b                    27.532635377994758 
_cell_length_c                    28.346681899109306 
_cell_angle_alpha                 90.6907668237621 
_cell_angle_beta                  89.34777517008098 
_cell_angle_gamma                 88.63307465615623 
loop_ 
_atom_site_label 
_atom_site_type_symbol 
_atom_site_fract_x 
_atom_site_fract_y 
_atom_site_fract_z 
_atom_site_charge 
N1          N  0.40903743  0.44442889  0.05989568    -0.06930
N2          N  0.37511967  0.41504873  0.07299750    -0.59050
N3          N  0.44474481  0.04885072  0.10200634    -0.06610
N4          N  0.43148394  0.07378100  0.14055431    -0.61180
N5          N  0.41549374  0.05862309  0.06781707    -0.06210
N6          N  0.38490476  0.09272367  0.08129237    -0.59030
N7          N  0.44573931  0.43630937  0.08647562    -0.05890
N8          N  0.43768324  0.40040785  0.11629323    -0.61530
C9          C  0.39315671  0.38706679  0.10830015     0.95240
C10         C  0.39359179  0.10085326  0.12740254     0.95020
N11         N  0.08925226  0.05127821  0.05907391    -0.07120
N12         N  0.12325664  0.08085238  0.07054095    -0.59630
N13         N  0.05751152  0.43384944  0.07767427    -0.05240
N14         N  0.06954434  0.39846860  0.10660889    -0.60880
N15         N  0.09048292  0.43937366  0.04560823    -0.07150
N16         N  0.12628134  0.40915040  0.05413451    -0.59900
N17         N  0.05993391  0.04744245  0.09487133    -0.04880
N18         N  0.07456723  0.07452068  0.13102531    -0.60970
Mn19       Mn  0.00199625  0.49143708  0.09103715     1.18440
C20         C  0.11474203  0.09549664  0.11566249     0.97320
C21         C  0.11281765  0.38301736  0.09233458     0.97990
N22         N  0.40506638  0.06956470  0.45692787    -0.07170
N23         N  0.37132276  0.10295920  0.45015203    -0.63480
N24         N  0.43322143  0.45538732  0.41222632    -0.05970
N25         N  0.42035749  0.42557414  0.37792007    -0.64150
N26         N  0.40081878  0.45724985  0.44555844    -0.06680
N27         N  0.36496441  0.43044998  0.43301897    -0.63740
N28         N  0.43408043  0.06815040  0.42062739    -0.05570
N29         N  0.41912699  0.09905677  0.38862404    -0.64430
Mn30       Mn  0.40704316  0.00768135  0.50788458     1.10660
C31         C  0.38038158  0.12220560  0.40687522     0.98550
C32         C  0.37715883  0.41046925  0.39039266     0.98620
N33         N  0.08214730  0.45242796  0.43146446    -0.06680
N34         N  0.11562770  0.42332042  0.41433624    -0.62060
N35         N  0.04946294  0.06539966  0.41137469    -0.06000
N36         N  0.06335518  0.09590518  0.37800585    -0.58790
N37         N  0.08048324  0.06441896  0.44538150    -0.07310
N38         N  0.11385428  0.09546445  0.43647988    -0.61620
N39         N  0.04688605  0.45307305  0.40211015    -0.06300
N40         N  0.05595396  0.42341329  0.36546089    -0.58810
Mn41       Mn  0.08585389  0.50214629  0.99531012     1.20190
Mn42       Mn  0.49077308  0.01029592  0.41082965     1.10090
Cl43       Cl  0.99650424  0.00292157  0.00114352    -0.86780
C44         C  0.09931113  0.40440797  0.37334934     0.95550
C45         C  0.10375725  0.11531738  0.39419443     0.95350
C46         C  0.14035821  0.14420105  0.36463952    -0.03300
C47         C  0.12902463  0.37063541  0.33917556    -0.03300
C48         C  0.14577511  0.35380936  0.12545037    -0.03300
C49         C  0.14650346  0.13023479  0.14557777    -0.03300
C50         C  0.34477939  0.15251433  0.37566346    -0.03300
C51         C  0.36244598  0.13509185  0.15853871    -0.03300
C52         C  0.36410202  0.35451582  0.14257421    -0.03300
C53         C  0.34596771  0.37844263  0.35810701    -0.03300
C54         C  0.39531224  0.34150086  0.28392489    -0.02660
C55         C  0.36936569  0.38131453  0.30376083     0.07020
C56         C  0.37615540  0.42192988  0.27290938    -0.02780
C57         C  0.38299705  0.41429704  0.22202751    -0.02780
C58         C  0.37941478  0.36683119  0.19952012     0.07150
C59         C  0.39845823  0.33275941  0.23351573    -0.02970
Br60       Br  0.44357993  0.28335135  0.21686539    -0.01520
Br61       Br  0.44147754  0.31298163  0.32472508    -0.01590
Br62       Br  0.40603543  0.46862948  0.18730637    -0.01550
Br63       Br  0.39594942  0.48409223  0.29852363    -0.01540
C64         C  0.41605752  0.26759022  0.11980409    -0.02660
C65         C  0.37405244  0.29630473  0.12990339     0.07020
C66         C  0.33630319  0.26554731  0.13329300    -0.02780
C67         C  0.33955587  0.21651830  0.11989604    -0.02780
C68         C  0.37418723  0.19000141  0.14195955     0.07150
C69         C  0.41722353  0.21469616  0.13038147    -0.02970
Br70       Br  0.47095214  0.17734881  0.11121243    -0.01520
Br71       Br  0.46756977  0.29633313  0.08828366    -0.01830
Br72       Br  0.34070777  0.19927361  0.05388395    -0.01550
Br73       Br  0.31743153  0.27537763  0.19272104    -0.01540
C74         C  0.32560666  0.11037860  0.28925547    -0.02660
C75         C  0.35627475  0.13315576  0.32116009     0.07020
C76         C  0.40108663  0.13969258  0.29812287    -0.02780
C77         C  0.40807447  0.13493666  0.24705790    -0.02780
C78         C  0.36999496  0.12687730  0.21577418     0.07150
C79         C  0.33631966  0.10281977  0.24101557    -0.02970
Br80       Br  0.31998373  0.04482238  0.21490579    -0.01520
Br81       Br  0.26377578  0.09635665  0.29882821    -0.01590
Br82       Br  0.46747335  0.10906785  0.23033842    -0.01550
Br83       Br  0.44592674  0.17732360  0.33036249    -0.01540
C84         C  0.37704241  0.24172084  0.40937830    -0.02660
C85         C  0.35205665  0.21171422  0.37634380     0.07020
C86         C  0.33142006  0.23969676  0.34048043    -0.02780
C87         C  0.32187521  0.28984461  0.34371471    -0.02780
C88         C  0.34696078  0.32100338  0.37306112     0.07150
C89         C  0.37453321  0.29504188  0.40797675    -0.02970
Br90       Br  0.41315137  0.32904696  0.45209764    -0.01520
Br91       Br  0.41656495  0.21203588  0.45598777    -0.01590
Br92       Br  0.29066059  0.31689910  0.29148043    -0.01550
Br93       Br  0.35622372  0.22953782  0.28000859    -0.01540
C94         C  0.23308223  0.08742019  0.11099711    -0.02660
C95         C  0.20290093  0.12386647  0.13434546     0.07020
C96         C  0.22937644  0.16491425  0.13859769    -0.02780
C97         C  0.27230274  0.16056164  0.16016953    -0.02780
C98         C  0.30644464  0.12557125  0.14549114     0.07150
C99         C  0.28370216  0.08648808  0.11884220    -0.02970
Br100      Br  0.31390026  0.02587385  0.09875274    -0.01520
Br101      Br  0.21787194  0.06264392  0.04936851    -0.01590
Br102      Br  0.26812881  0.18220292  0.22132799    -0.01550
Br103      Br  0.23096314  0.19604100  0.07916081    -0.01540
C104        C  0.11559018  0.26493759  0.08758329    -0.02660
C105        C  0.14214097  0.29530992  0.11882813     0.07020
C106        C  0.16542698  0.26853291  0.15222949    -0.02780
C107        C  0.15293433  0.22277223  0.16589526    -0.02780
C108        C  0.13457113  0.18815667  0.13486607     0.07150
C109        C  0.11401687  0.21188032  0.09393258    -0.02970
Br110      Br  0.07943911  0.17634319  0.04814646    -0.01520
Br111      Br  0.08394495  0.29358452  0.03491366    -0.01590
Br112      Br  0.15980026  0.21465752  0.23005827    -0.01550
Br113      Br  0.21701847  0.29289709  0.18046706    -0.01540
C114        C  0.27330677  0.39544492  0.15324198    -0.02660
C115        C  0.30704218  0.36483047  0.12919668     0.07020
C116        C  0.28498867  0.34320552  0.08891585    -0.02780
C117        C  0.23429073  0.34083064  0.08428508    -0.02780
C118        C  0.20133030  0.36713665  0.11462416     0.07150
C119        C  0.22503717  0.40181934  0.14043826    -0.02970
Br120      Br  0.21025572  0.46323119  0.11474124    -0.01520
Br121      Br  0.29166238  0.44193462  0.19324005    -0.01590
Br122      Br  0.21153149  0.30153617  0.03589112    -0.01550
Br123      Br  0.32464834  0.31704538  0.03926132    -0.01540
C124        C  0.11688997  0.41333776  0.20348649    -0.02660
C125        C  0.12546170  0.36654210  0.18022231     0.07020
C126        C  0.09918692  0.33214611  0.20630428    -0.02780
C127        C  0.09328053  0.33553182  0.25671342    -0.02780
C128        C  0.11014286  0.37542424  0.28360998     0.07150
C129        C  0.10612646  0.41725421  0.25417452    -0.02970
Br130      Br  0.07762029  0.47638583  0.27860215    -0.01520
Br131      Br  0.11164199  0.47260396  0.16941131    -0.01590
Br132      Br  0.04734376  0.29680728  0.28482172    -0.01550
Br133      Br  0.05180573  0.29848384  0.17283888    -0.01540
C134        C  0.20883523  0.37188806  0.39098951    -0.02660
C135        C  0.18470850  0.38590237  0.34890405     0.07020
C136        C  0.21614590  0.41085757  0.31802888    -0.02780
C137        C  0.26429890  0.41906918  0.32753612    -0.02780
C138        C  0.28984992  0.39522003  0.36275932     0.07150
C139        C  0.25852923  0.37738040  0.39758074    -0.02970
Br140      Br  0.27965682  0.37833930  0.45976953    -0.01520
Br141      Br  0.17520182  0.34233071  0.44094932    -0.01590
Br142      Br  0.28646908  0.47856871  0.30712494    -0.01550
Br143      Br  0.20385890  0.42675066  0.25603039    -0.01540
C144        C  0.16064028  0.09092334  0.28311627    -0.02660
C145        C  0.13472990  0.12746306  0.30806022     0.07020
C146        C  0.09733951  0.14383627  0.27853170    -0.02780
C147        C  0.09624059  0.13744608  0.22746474    -0.02780
C148        C  0.13560832  0.11763309  0.20165857     0.07150
C149        C  0.16498816  0.08945807  0.23201112    -0.02970
Br150      Br  0.20430067  0.04011069  0.20569588    -0.01520
Br151      Br  0.17063914  0.03151931  0.31502535    -0.01590
Br152      Br  0.04978076  0.17355356  0.19369631    -0.01550
Br153      Br  0.04912857  0.18075024  0.30565854    -0.01540
C154        C  0.21146110  0.17157577  0.41862836    -0.02660
C155        C  0.19133405  0.13452325  0.39075840     0.07020
C156        C  0.22019257  0.09136748  0.39671295    -0.02780
C157        C  0.27056811  0.09560111  0.39902283    -0.02780
C158        C  0.29178085  0.14248550  0.39565296     0.07150
C159        C  0.26078805  0.17833216  0.41767741    -0.02970
Br160      Br  0.28100369  0.23263981  0.45391074    -0.01520
Br161      Br  0.17309073  0.20378386  0.46605841    -0.01590
Br162      Br  0.30744392  0.03678275  0.40480283    -0.01550
Br163      Br  0.19574231  0.03236741  0.42323083    -0.01540
C164        C  0.09409454  0.28720349  0.38395175    -0.02660
C165        C  0.12569662  0.31278756  0.35325925     0.07020
C166        C  0.15855069  0.28160956  0.33196877    -0.02780
C167        C  0.16539591  0.23201314  0.34106867    -0.02780
C168        C  0.13266653  0.20385141  0.36563735     0.07150
C169        C  0.09663451  0.23408188  0.38889900    -0.02970
Br170      Br  0.04951384  0.20525655  0.42797982    -0.01520
Br171      Br  0.04350670  0.32183945  0.41570563    -0.01590
Br172      Br  0.22465466  0.20692169  0.32069628    -0.01550
Br173      Br  0.19026078  0.30610761  0.28180432    -0.01540
N174        N  0.40903741  0.44442893  0.55989569    -0.06930
N175        N  0.37511964  0.41504878  0.57299753    -0.59050
N176        N  0.44474481  0.04885076  0.60200634    -0.06610
N177        N  0.43148396  0.07378103  0.64055432    -0.61180
N178        N  0.41549373  0.05862313  0.56781707    -0.06210
N179        N  0.38490477  0.09272372  0.58129239    -0.59030
N180        N  0.44573928  0.43630942  0.58647564    -0.05890
N181        N  0.43768321  0.40040792  0.61629326    -0.61530
C182        C  0.39315668  0.38706686  0.60830019     0.95240
C183        C  0.39359181  0.10085330  0.62740256     0.95020
N184        N  0.08925226  0.05127819  0.55907391    -0.07120
N185        N  0.12325665  0.08085235  0.57054095    -0.59630
N186        N  0.05751150  0.43384944  0.57767428    -0.05240
N187        N  0.06954432  0.39846860  0.60660890    -0.60880
N188        N  0.09048290  0.43937364  0.54560823    -0.07150
N189        N  0.12628132  0.40915039  0.55413452    -0.59900
N190        N  0.05993390  0.04744245  0.59487132    -0.04880
N191        N  0.07456723  0.07452068  0.63102530    -0.60970
Mn192      Mn  0.00199624  0.49143709  0.59103714     1.18440
C193        C  0.11474203  0.09549662  0.61566248     0.97320
C194        C  0.11281763  0.38301736  0.59233459     0.97990
N195        N  0.40506639  0.06956468  0.95692790    -0.07170
N196        N  0.37132277  0.10295919  0.95015207    -0.63480
N197        N  0.43322144  0.45538730  0.91222634    -0.05970
N198        N  0.42035749  0.42557412  0.87792008    -0.64150
N199        N  0.40081880  0.45724983  0.94555846    -0.06680
N200        N  0.36496443  0.43044997  0.93301900    -0.63740
N201        N  0.43408043  0.06815038  0.92062741    -0.05570
N202        N  0.41912698  0.09905674  0.88862406    -0.64430
Mn203      Mn  0.40704318  0.00768132  0.00788459     1.10660
C204        C  0.38038159  0.12220558  0.90687526     0.98550
C205        C  0.37715883  0.41046924  0.89039269     0.98620
N206        N  0.08214732  0.45242798  0.93146445    -0.06680
N207        N  0.11562773  0.42332045  0.91433622    -0.62060
N208        N  0.04946295  0.06539968  0.91137468    -0.06000
N209        N  0.06335518  0.09590520  0.87800584    -0.58790
N210        N  0.08048324  0.06441899  0.94538149    -0.07310
N211        N  0.11385429  0.09546448  0.93647986    -0.61620
N212        N  0.04688607  0.45307306  0.90211015    -0.06300
N213        N  0.05595398  0.42341330  0.86546088    -0.58810
Mn214      Mn  0.08585388  0.50214627  0.49531012     1.20190
Mn215      Mn  0.49077309  0.01029592  0.91082965     1.10090
Cl216      Cl  0.99650422  0.00292158  0.50114352    -0.86780
C217        C  0.09931115  0.40440799  0.87334933     0.95550
C218        C  0.10375726  0.11531741  0.89419441     0.95350
C219        C  0.14035822  0.14420107  0.86463950    -0.03300
C220        C  0.12902463  0.37063542  0.83917555    -0.03300
C221        C  0.14577510  0.35380936  0.62545039    -0.03300
C222        C  0.14650345  0.13023477  0.64557777    -0.03300
C223        C  0.34477941  0.15251434  0.87566351    -0.03300
C224        C  0.36244600  0.13509187  0.65853876    -0.03300
C225        C  0.36410201  0.35451589  0.64257426    -0.03300
C226        C  0.34596768  0.37844263  0.85810706    -0.03300
C227        C  0.39531220  0.34150091  0.78392492    -0.02660
C228        C  0.36936562  0.38131455  0.80376087     0.07020
C229        C  0.37615533  0.42192993  0.77290944    -0.02780
C230        C  0.38299700  0.41429712  0.72202757    -0.02780
C231        C  0.37941477  0.36683127  0.69952016     0.07150
C232        C  0.39845825  0.33275951  0.73351576    -0.02970
Br233      Br  0.44358002  0.28335153  0.71686538    -0.01520
Br234      Br  0.44147751  0.31298169  0.82472512    -0.01590
Br235      Br  0.40603544  0.46862954  0.68730645    -0.01550
Br236      Br  0.39594934  0.48409227  0.79852371    -0.01540
C237        C  0.41605749  0.26759028  0.61980413    -0.02660
C238        C  0.37405242  0.29630479  0.62990347     0.07020
C239        C  0.33630318  0.26554738  0.63329316    -0.02780
C240        C  0.33955583  0.21651836  0.61989620    -0.02780
C241        C  0.37418722  0.19000147  0.64195965     0.07150
C242        C  0.41722352  0.21469622  0.63038152    -0.02970
Br243      Br  0.47095212  0.17734888  0.61121243    -0.01520
Br244      Br  0.46756973  0.29633319  0.58828366    -0.01830
Br245      Br  0.34070773  0.19927367  0.55388409    -0.01550
Br246      Br  0.31743162  0.27537778  0.69272123    -0.01540
C247        C  0.32560666  0.11037864  0.78925551    -0.02660
C248        C  0.35627476  0.13315579  0.82116013     0.07020
C249        C  0.40108665  0.13969257  0.79812291    -0.02780
C250        C  0.40807450  0.13493666  0.74705794    -0.02780
C251        C  0.36999499  0.12687730  0.71577423     0.07150
C252        C  0.33631968  0.10281978  0.74101561    -0.02970
Br253      Br  0.31998372  0.04482242  0.71490584    -0.01520
Br254      Br  0.26377576  0.09635675  0.79882822    -0.01590
Br255      Br  0.46747337  0.10906783  0.73033845    -0.01550
Br256      Br  0.44592682  0.17732350  0.83036256    -0.01540
C257        C  0.37704246  0.24172083  0.90937836    -0.02660
C258        C  0.35205669  0.21171422  0.87634387     0.07020
C259        C  0.33142012  0.23969675  0.84048050    -0.02780
C260        C  0.32187519  0.28984458  0.84371483    -0.02780
C261        C  0.34696077  0.32100337  0.87306121     0.07150
C262        C  0.37453324  0.29504189  0.90797681    -0.02970
Br263      Br  0.41315141  0.32904698  0.95209769    -0.01520
Br264      Br  0.41656505  0.21203587  0.95598778    -0.01590
Br265      Br  0.29066048  0.31689901  0.79148063    -0.01550
Br266      Br  0.35622400  0.22953797  0.78000872    -0.01540
C267        C  0.23308225  0.08742022  0.61099712    -0.02660
C268        C  0.20290094  0.12386646  0.63434550     0.07020
C269        C  0.22937643  0.16491423  0.63859784    -0.02780
C270        C  0.27230275  0.16056160  0.66016965    -0.02780
C271        C  0.30644466  0.12557126  0.64549119     0.07150
C272        C  0.28370218  0.08648811  0.61884221    -0.02970
Br273      Br  0.31390028  0.02587388  0.59875275    -0.01520
Br274      Br  0.21787197  0.06264396  0.54936851    -0.01590
Br275      Br  0.26812903  0.18220306  0.72132807    -0.01550
Br276      Br  0.23096314  0.19604108  0.57916100    -0.01540
C277        C  0.11559017  0.26493758  0.58758329    -0.02660
C278        C  0.14214094  0.29530991  0.61882814     0.07020
C279        C  0.16542691  0.26853290  0.65222953    -0.02780
C280        C  0.15293427  0.22277221  0.66589528    -0.02780
C281        C  0.13457112  0.18815665  0.63486606     0.07150
C282        C  0.11401686  0.21188031  0.59393257    -0.02970
Br283      Br  0.07943912  0.17634318  0.54814645    -0.01520
Br284      Br  0.08394496  0.29358451  0.53491365    -0.01590
Br285      Br  0.15980048  0.21465734  0.73005824    -0.01550
Br286      Br  0.21701856  0.29289694  0.68046691    -0.01540
C287        C  0.27330674  0.39544495  0.65324202    -0.02660
C288        C  0.30704215  0.36483051  0.62919672     0.07020
C289        C  0.28498867  0.34320555  0.58891589    -0.02780
C290        C  0.23429072  0.34083067  0.58428510    -0.02780
C291        C  0.20133028  0.36713666  0.61462418     0.07150
C292        C  0.22503714  0.40181936  0.64043828    -0.02970
Br293      Br  0.21025572  0.46323119  0.61474119    -0.01520
Br294      Br  0.29166235  0.44193469  0.69324003    -0.01590
Br295      Br  0.21153150  0.30153618  0.53589114    -0.01550
Br296      Br  0.32464837  0.31704538  0.53926141    -0.01540
C297        C  0.11688998  0.41333779  0.70348649    -0.02660
C298        C  0.12546169  0.36654212  0.68022232     0.07020
C299        C  0.09918689  0.33214615  0.70630428    -0.02780
C300        C  0.09328046  0.33553188  0.75671342    -0.02780
C301        C  0.11014284  0.37542429  0.78360998     0.07150
C302        C  0.10612647  0.41725426  0.75417451    -0.02970
Br303      Br  0.07762029  0.47638587  0.77860213    -0.01520
Br304      Br  0.11164200  0.47260397  0.66941128    -0.01590
Br305      Br  0.04734369  0.29680739  0.78482174    -0.01550
Br306      Br  0.05180574  0.29848382  0.67283888    -0.01540
C307        C  0.20883522  0.37188806  0.89098952    -0.02660
C308        C  0.18470851  0.38590234  0.84890403     0.07020
C309        C  0.21614592  0.41085753  0.81802887    -0.02780
C310        C  0.26429890  0.41906918  0.82753614    -0.02780
C311        C  0.28984991  0.39522006  0.86275937     0.07150
C312        C  0.25852921  0.37738046  0.89758080    -0.02970
Br313      Br  0.27965668  0.37833964  0.95976965    -0.01520
Br314      Br  0.17520180  0.34233070  0.94094931    -0.01590
Br315      Br  0.28646901  0.47856875  0.80712499    -0.01550
Br316      Br  0.20385892  0.42675062  0.75603038    -0.01540
C317        C  0.16064026  0.09092333  0.78311626    -0.02660
C318        C  0.13472990  0.12746307  0.80806020     0.07020
C319        C  0.09733951  0.14383631  0.77853168    -0.02780
C320        C  0.09624058  0.13744609  0.72746472    -0.02780
C321        C  0.13560828  0.11763306  0.70165855     0.07150
C322        C  0.16498812  0.08945803  0.73201111    -0.02970
Br323      Br  0.20430067  0.04011067  0.70569587    -0.01520
Br324      Br  0.17063915  0.03151931  0.81502535    -0.01590
Br325      Br  0.04978075  0.17355356  0.69369629    -0.01550
Br326      Br  0.04912862  0.18075036  0.80565849    -0.01540
C327        C  0.21146110  0.17157578  0.91862835    -0.02660
C328        C  0.19133406  0.13452327  0.89075838     0.07020
C329        C  0.22019258  0.09136750  0.89671295    -0.02780
C330        C  0.27056812  0.09560113  0.89902284    -0.02780
C331        C  0.29178087  0.14248552  0.89565298     0.07150
C332        C  0.26078805  0.17833218  0.91767741    -0.02970
Br333      Br  0.28100366  0.23263988  0.95391069    -0.01520
Br334      Br  0.17309072  0.20378387  0.96605839    -0.01590
Br335      Br  0.30744392  0.03678277  0.90480285    -0.01550
Br336      Br  0.19574231  0.03236743  0.92323084    -0.01540
C337        C  0.09409456  0.28720351  0.88395173    -0.02660
C338        C  0.12569662  0.31278758  0.85325920     0.07020
C339        C  0.15855066  0.28160958  0.83196868    -0.02780
C340        C  0.16539591  0.23201318  0.84106862    -0.02780
C341        C  0.13266655  0.20385144  0.86563732     0.07150
C342        C  0.09663453  0.23408191  0.88889898    -0.02970
Br343      Br  0.04951387  0.20525658  0.92797981    -0.01520
Br344      Br  0.04350674  0.32183947  0.91570564    -0.01590
Br345      Br  0.22465471  0.20692180  0.82069632    -0.01550
Br346      Br  0.19026069  0.30610763  0.78180413    -0.01540
N347        N  0.40903812  0.94442896  0.05989553    -0.06930
N348        N  0.37512027  0.91504881  0.07299717    -0.59050
N349        N  0.44474381  0.54885068  0.10200635    -0.06610
N350        N  0.43148287  0.57378096  0.14055429    -0.61180
N351        N  0.41549267  0.55862291  0.06781710    -0.06210
N352        N  0.38490357  0.59272337  0.08129238    -0.59030
N353        N  0.44573992  0.93630931  0.08647554    -0.05890
N354        N  0.43768370  0.90040766  0.11629299    -0.61530
C355        C  0.39315713  0.88706670  0.10829977     0.95240
C356        C  0.39359059  0.60085304  0.12740252     0.95020
N357        N  0.08925121  0.55127852  0.05907379    -0.07120
N358        N  0.12325549  0.58085283  0.07054082    -0.59630
N359        N  0.05751211  0.93384937  0.07767426    -0.05240
N360        N  0.06954484  0.89846857  0.10660893    -0.60880
N361        N  0.09048353  0.93937349  0.04560822    -0.07150
N362        N  0.12628188  0.90915019  0.05413453    -0.59900
N363        N  0.05993296  0.54744257  0.09487127    -0.04880
N364        N  0.07456628  0.57452072  0.13102530    -0.60970
Mn365      Mn  0.00199703  0.99143701  0.09103716     1.18440
C366        C  0.11474094  0.59549689  0.11566244     0.97320
C367        C  0.11281811  0.88301729  0.09233462     0.97990
N368        N  0.40506517  0.56956458  0.45692800    -0.07170
N369        N  0.37132155  0.60295911  0.45015219    -0.63480
N370        N  0.43322252  0.95538735  0.41222618    -0.05970
N371        N  0.42035853  0.92557403  0.37792003    -0.64150
N372        N  0.40081996  0.95724991  0.44555838    -0.06680
N373        N  0.36496566  0.93044992  0.43301908    -0.63740
N374        N  0.43407915  0.56815022  0.42062747    -0.05570
N375        N  0.41912559  0.59905646  0.38862408    -0.64430
Mn376      Mn  0.40704212  0.50768122  0.50788468     1.10660
C377        C  0.38038026  0.62220538  0.40687529     0.98550
C378        C  0.37715993  0.91046907  0.39039281     0.98620
N379        N  0.08214831  0.95242794  0.43146453    -0.06680
N380        N  0.11562880  0.92332060  0.41433621    -0.62060
N381        N  0.04946165  0.56539988  0.41137456    -0.06000
N382        N  0.06335367  0.59590569  0.37800584    -0.58790
N383        N  0.08048194  0.56441926  0.44538136    -0.07310
N384        N  0.11385275  0.59546507  0.43647987    -0.61620
N385        N  0.04688714  0.95307320  0.40211012    -0.06300
N386        N  0.05595520  0.92341380  0.36546065    -0.58810
Mn387      Mn  0.08585487  0.00214608  0.99531023     1.20190
Mn388      Mn  0.49077192  0.51029587  0.41082969     1.10090
Cl389      Cl  0.99650324  0.50292158  0.00114353    -0.86780
C390        C  0.09931235  0.90440851  0.37334912     0.95550
C391        C  0.10375563  0.61531814  0.39419450     0.95350
C392        C  0.14035672  0.64420166  0.36463954    -0.03300
C393        C  0.12902569  0.87063586  0.33917546    -0.03300
C394        C  0.14577545  0.85380930  0.12545035    -0.03300
C395        C  0.14650236  0.63023496  0.14557780    -0.03300
C396        C  0.34477817  0.65251433  0.37566357    -0.03300
C397        C  0.36244482  0.63509179  0.15853855    -0.03300
C398        C  0.36410221  0.85451572  0.14257374    -0.03300
C399        C  0.34596841  0.87844267  0.35810729    -0.03300
C400        C  0.39531232  0.84150032  0.28392471    -0.02660
C401        C  0.36936627  0.88131427  0.30376091     0.07020
C402        C  0.37615600  0.92192954  0.27290934    -0.02780
C403        C  0.38299736  0.91429672  0.22202740    -0.02780
C404        C  0.37941492  0.86683092  0.19951985     0.07150
C405        C  0.39845828  0.83275904  0.23351546    -0.02970
Br406      Br  0.44357958  0.78335060  0.21686491    -0.01520
Br407      Br  0.44147667  0.81297942  0.32472492    -0.01590
Br408      Br  0.40603643  0.96862900  0.18730643    -0.01550
Br409      Br  0.39595028  0.98409183  0.29852353    -0.01540
C410        C  0.41605706  0.76758979  0.11980354    -0.02660
C411        C  0.37405216  0.79630461  0.12990274     0.07020
C412        C  0.33630270  0.76554747  0.13329264    -0.02780
C413        C  0.33955500  0.71651843  0.11989571    -0.02780
C414        C  0.37418628  0.69000128  0.14195916     0.07150
C415        C  0.41722272  0.71469572  0.13038087    -0.02970
Br416      Br  0.47095100  0.67734803  0.11121145    -0.01520
Br417      Br  0.46756983  0.79633251  0.08828378    -0.01830
Br418      Br  0.34070644  0.69927401  0.05388356    -0.01550
Br419      Br  0.31743163  0.77537775  0.19272099    -0.01540
C420        C  0.32560517  0.61037884  0.28925541    -0.02660
C421        C  0.35627343  0.63315566  0.32116013     0.07020
C422        C  0.40108537  0.63969214  0.29812287    -0.02780
C423        C  0.40807318  0.63493626  0.24705789    -0.02780
C424        C  0.36999362  0.62687728  0.21577410     0.07150
C425        C  0.33631809  0.60282000  0.24101546    -0.02970
Br426      Br  0.31998238  0.54482228  0.21490595    -0.01520
Br427      Br  0.26377442  0.59635654  0.29882833    -0.01590
Br428      Br  0.46747214  0.60906764  0.23033836    -0.01550
Br429      Br  0.44592596  0.67732250  0.33036250    -0.01540
C430        C  0.37704171  0.74172060  0.40937864    -0.02660
C431        C  0.35205585  0.71171419  0.37634400     0.07020
C432        C  0.33141941  0.73969696  0.34048071    -0.02780
C433        C  0.32187498  0.78984492  0.34371499    -0.02780
C434        C  0.34696073  0.82100346  0.37306153     0.07150
C435        C  0.37453289  0.79504169  0.40797717    -0.02970
Br436      Br  0.41315150  0.82904645  0.45209787    -0.01520
Br437      Br  0.41656400  0.71203534  0.45598812    -0.01590
Br438      Br  0.29066077  0.81689969  0.29148057    -0.01550
Br439      Br  0.35622255  0.72953747  0.28000875    -0.01540
C440        C  0.23308105  0.58741982  0.11099746    -0.02660
C441        C  0.20289982  0.62386641  0.13434548     0.07020
C442        C  0.22937537  0.66491423  0.13859690    -0.02780
C443        C  0.27230167  0.66056194  0.16016883    -0.02780
C444        C  0.30644351  0.62557126  0.14549093     0.07150
C445        C  0.28370101  0.58648778  0.11884245    -0.02970
Br446      Br  0.31389920  0.52587344  0.09875335    -0.01520
Br447      Br  0.21787070  0.56264290  0.04936911    -0.01590
Br448      Br  0.26812734  0.68220327  0.22132730    -0.01550
Br449      Br  0.23096183  0.69603986  0.07915946    -0.01540
C450        C  0.11558980  0.76493783  0.08758319    -0.02660
C451        C  0.14214089  0.79530993  0.11882801     0.07020
C452        C  0.16542682  0.76853272  0.15222920    -0.02780
C453        C  0.15293365  0.72277229  0.16589511    -0.02780
C454        C  0.13457021  0.68815684  0.13486602     0.07150
C455        C  0.11401612  0.71188058  0.09393250    -0.02970
Br456      Br  0.07943812  0.67634367  0.04814639    -0.01520
Br457      Br  0.08394480  0.79358494  0.03491351    -0.01590
Br458      Br  0.15979816  0.71465837  0.23005831    -0.01550
Br459      Br  0.21701851  0.79289637  0.18046671    -0.01540
C460        C  0.27330713  0.89544494  0.15324142    -0.02660
C461        C  0.30704243  0.86483047  0.12919606     0.07020
C462        C  0.28498881  0.84320556  0.08891523    -0.02780
C463        C  0.23429088  0.84083045  0.08428485    -0.02780
C464        C  0.20133061  0.86713642  0.11462408     0.07150
C465        C  0.22503753  0.90181943  0.14043771    -0.02970
Br466      Br  0.21025653  0.96323098  0.11473949    -0.01520
Br467      Br  0.29166344  0.94193563  0.19323796    -0.01590
Br468      Br  0.21153144  0.80153587  0.03589114    -0.01550
Br469      Br  0.32464799  0.81704613  0.03925989    -0.01540
C470        C  0.11689120  0.91333811  0.20348633    -0.02660
C471        C  0.12546231  0.86654228  0.18022229     0.07020
C472        C  0.09918730  0.83214663  0.20630446    -0.02780
C473        C  0.09328101  0.83553274  0.25671358    -0.02780
C474        C  0.11014400  0.87542493  0.28360992     0.07150
C475        C  0.10612806  0.91725489  0.25417440    -0.02970
Br476      Br  0.07762174  0.97638652  0.27860180    -0.01520
Br477      Br  0.11164335  0.97260407  0.16941083    -0.01590
Br478      Br  0.04734303  0.79681010  0.28482220    -0.01550
Br479      Br  0.05180598  0.79848418  0.17283937    -0.01540
C480        C  0.20883618  0.87188870  0.39098979    -0.02660
C481        C  0.18470964  0.88590242  0.34890398     0.07020
C482        C  0.21614713  0.91085726  0.31802866    -0.02780
C483        C  0.26429994  0.91906927  0.32753615    -0.02780
C484        C  0.28985083  0.89522073  0.36275984     0.07150
C485        C  0.25852999  0.87738204  0.39758173    -0.02970
Br486      Br  0.27965524  0.87834723  0.45977185    -0.01520
Br487      Br  0.17520290  0.84233065  0.44094915    -0.01590
Br488      Br  0.28646990  0.97856851  0.30712394    -0.01550
Br489      Br  0.20386109  0.92674817  0.25602934    -0.01540
C490        C  0.16063870  0.59092402  0.28311650    -0.02660
C491        C  0.13472825  0.62746371  0.30806026     0.07020
C492        C  0.09733794  0.64383700  0.27853157    -0.02780
C493        C  0.09623914  0.63744641  0.22746459    -0.02780
C494        C  0.13560703  0.61763347  0.20165863     0.07150
C495        C  0.16498680  0.58945865  0.23201139    -0.02970
Br496      Br  0.20429948  0.54011135  0.20569649    -0.01520
Br497      Br  0.17063708  0.53152012  0.31502585    -0.01590
Br498      Br  0.04977931  0.67355340  0.19369567    -0.01550
Br499      Br  0.04912765  0.68075264  0.30565777    -0.01540
C500        C  0.21145974  0.67157627  0.41862831    -0.02660
C501        C  0.19133258  0.63452372  0.39075846     0.07020
C502        C  0.22019105  0.59136794  0.39671314    -0.02780
C503        C  0.27056661  0.59560149  0.39902306    -0.02780
C504        C  0.29177952  0.64248581  0.39565305     0.07150
C505        C  0.26078670  0.67833268  0.41767724    -0.02970
Br506      Br  0.28100211  0.73264117  0.45390960    -0.01520
Br507      Br  0.17308943  0.70378447  0.46605833    -0.01590
Br508      Br  0.30744218  0.53678307  0.40480375    -0.01550
Br509      Br  0.19574066  0.53236800  0.42323121    -0.01540
C510        C  0.09409459  0.78720445  0.38395167    -0.02660
C511        C  0.12569703  0.81278813  0.35325919     0.07020
C512        C  0.15855072  0.78160976  0.33196867    -0.02780
C513        C  0.16539529  0.73201329  0.34106850    -0.02780
C514        C  0.13266557  0.70385200  0.36563721     0.07150
C515        C  0.09663387  0.73408284  0.38889883    -0.02970
Br516      Br  0.04951270  0.70525792  0.42797934    -0.01520
Br517      Br  0.04350713  0.82184091  0.41570570    -0.01590
Br518      Br  0.22465363  0.70692106  0.32069576    -0.01550
Br519      Br  0.19026116  0.80610734  0.28180418    -0.01540
N520        N  0.40903810  0.94442900  0.55989555    -0.06930
N521        N  0.37512024  0.91504886  0.57299720    -0.59050
N522        N  0.44474382  0.54885072  0.60200634    -0.06610
N523        N  0.43148288  0.57378099  0.64055430    -0.61180
N524        N  0.41549267  0.55862296  0.56781710    -0.06210
N525        N  0.38490358  0.59272342  0.58129240    -0.59030
N526        N  0.44573989  0.93630935  0.58647556    -0.05890
N527        N  0.43768367  0.90040773  0.61629303    -0.61530
C528        C  0.39315711  0.88706677  0.60829982     0.95240
C529        C  0.39359061  0.60085309  0.62740254     0.95020
N530        N  0.08925120  0.55127850  0.55907378    -0.07120
N531        N  0.12325549  0.58085280  0.57054081    -0.59630
N532        N  0.05751209  0.93384937  0.57767427    -0.05240
N533        N  0.06954482  0.89846858  0.60660895    -0.60880
N534        N  0.09048351  0.93937348  0.54560823    -0.07150
N535        N  0.12628186  0.90915018  0.55413454    -0.59900
N536        N  0.05993295  0.54744257  0.59487125    -0.04880
N537        N  0.07456627  0.57452071  0.63102528    -0.60970
Mn538      Mn  0.00199702  0.99143703  0.59103715     1.18440
C539        C  0.11474093  0.59549687  0.61566242     0.97320
C540        C  0.11281809  0.88301729  0.59233464     0.97990
N541        N  0.40506518  0.56956456  0.95692803    -0.07170
N542        N  0.37132156  0.60295909  0.95015223    -0.63480
N543        N  0.43322254  0.95538734  0.91222619    -0.05970
N544        N  0.42035854  0.92557401  0.87792004    -0.64150
N545        N  0.40081999  0.95724990  0.94555839    -0.06680
N546        N  0.36496568  0.93044990  0.93301911    -0.63740
N547        N  0.43407914  0.56815018  0.92062749    -0.05570
N548        N  0.41912557  0.59905641  0.88862410    -0.64430
Mn549      Mn  0.40704214  0.50768118  0.00788469     1.10660
C550        C  0.38038026  0.62220535  0.90687533     0.98550
C551        C  0.37715993  0.91046906  0.89039284     0.98620
N552        N  0.08214834  0.95242796  0.93146452    -0.06680
N553        N  0.11562883  0.92332062  0.91433620    -0.62060
N554        N  0.04946165  0.56539990  0.91137455    -0.06000
N555        N  0.06335367  0.59590571  0.87800582    -0.58790
N556        N  0.08048195  0.56441929  0.94538136    -0.07310
N557        N  0.11385275  0.59546510  0.93647986    -0.61620
N558        N  0.04688716  0.95307321  0.90211012    -0.06300
N559        N  0.05595522  0.92341381  0.86546064    -0.58810
Mn560      Mn  0.08585486  0.00214606  0.49531023     1.20190
Mn561      Mn  0.49077193  0.51029586  0.91082969     1.10090
Cl562      Cl  0.99650322  0.50292159  0.50114352    -0.86780
C563        C  0.09931238  0.90440853  0.87334911     0.95550
C564        C  0.10375563  0.61531816  0.89419448     0.95350
C565        C  0.14035673  0.64420168  0.86463951    -0.03300
C566        C  0.12902569  0.87063587  0.83917543    -0.03300
C567        C  0.14577543  0.85380929  0.62545037    -0.03300
C568        C  0.14650233  0.63023493  0.64557780    -0.03300
C569        C  0.34477819  0.65251432  0.87566361    -0.03300
C570        C  0.36244483  0.63509181  0.65853861    -0.03300
C571        C  0.36410219  0.85451580  0.64257380    -0.03300
C572        C  0.34596839  0.87844266  0.85810735    -0.03300
C573        C  0.39531228  0.84150037  0.78392475    -0.02660
C574        C  0.36936619  0.88131428  0.80376095     0.07020
C575        C  0.37615592  0.92192958  0.77290941    -0.02780
C576        C  0.38299730  0.91429680  0.72202747    -0.02780
C577        C  0.37941491  0.86683102  0.69951990     0.07150
C578        C  0.39845831  0.83275915  0.73351549    -0.02970
Br579      Br  0.44357971  0.78335084  0.71686490    -0.01520
Br580      Br  0.44147663  0.81297949  0.82472496    -0.01590
Br581      Br  0.40603645  0.96862906  0.68730653    -0.01550
Br582      Br  0.39595019  0.98409186  0.79852363    -0.01540
C583        C  0.41605703  0.76758985  0.61980359    -0.02660
C584        C  0.37405214  0.79630468  0.62990284     0.07020
C585        C  0.33630269  0.76554754  0.63329283    -0.02780
C586        C  0.33955496  0.71651850  0.61989589    -0.02780
C587        C  0.37418627  0.69000133  0.64195928     0.07150
C588        C  0.41722270  0.71469578  0.63038094    -0.02970
Br589      Br  0.47095096  0.67734810  0.61121145    -0.01520
Br590      Br  0.46756977  0.79633257  0.58828380    -0.01830
Br591      Br  0.34070637  0.69927407  0.55388374    -0.01550
Br592      Br  0.31743175  0.77537794  0.69272123    -0.01540
C593        C  0.32560517  0.61037887  0.78925545    -0.02660
C594        C  0.35627343  0.63315569  0.82116017     0.07020
C595        C  0.40108539  0.63969212  0.79812292    -0.02780
C596        C  0.40807321  0.63493625  0.74705794    -0.02780
C597        C  0.36999365  0.62687726  0.71577415     0.07150
C598        C  0.33631811  0.60281999  0.74101551    -0.02970
Br599      Br  0.31998235  0.54482231  0.71490599    -0.01520
Br600      Br  0.26377438  0.59635666  0.79882833    -0.01590
Br601      Br  0.46747217  0.60906763  0.73033839    -0.01550
Br602      Br  0.44592607  0.67732234  0.83036260    -0.01540
C603        C  0.37704177  0.74172058  0.90937870    -0.02660
C604        C  0.35205591  0.71171417  0.87634407     0.07020
C605        C  0.33141949  0.73969693  0.84048078    -0.02780
C606        C  0.32187497  0.78984487  0.84371514    -0.02780
C607        C  0.34696073  0.82100344  0.87306162     0.07150
C608        C  0.37453293  0.79504168  0.90797724    -0.02970
Br609      Br  0.41315156  0.82904645  0.95209792    -0.01520
Br610      Br  0.41656412  0.71203532  0.95598813    -0.01590
Br611      Br  0.29066064  0.81689955  0.79148082    -0.01550
Br612      Br  0.35622293  0.72953766  0.78000890    -0.01540
C613        C  0.23308107  0.58741986  0.61099746    -0.02660
C614        C  0.20289982  0.62386640  0.63434554     0.07020
C615        C  0.22937535  0.66491421  0.63859711    -0.02780
C616        C  0.27230167  0.66056188  0.66016900    -0.02780
C617        C  0.30644352  0.62557127  0.64549099     0.07150
C618        C  0.28370103  0.58648783  0.61884245    -0.02970
Br619      Br  0.31389921  0.52587348  0.59875336    -0.01520
Br620      Br  0.21787072  0.56264297  0.54936910    -0.01590
Br621      Br  0.26812763  0.68220345  0.72132742    -0.01550
Br622      Br  0.23096182  0.69603997  0.57915972    -0.01540
C623        C  0.11558978  0.76493782  0.58758320    -0.02660
C624        C  0.14214085  0.79530992  0.61882803     0.07020
C625        C  0.16542672  0.76853270  0.65222926    -0.02780
C626        C  0.15293356  0.72277227  0.66589514    -0.02780
C627        C  0.13457017  0.68815681  0.63486602     0.07150
C628        C  0.11401609  0.71188057  0.59393249    -0.02970
Br629      Br  0.07943812  0.67634365  0.54814637    -0.01520
Br630      Br  0.08394480  0.79358493  0.53491351    -0.01590
Br631      Br  0.15979846  0.71465813  0.73005827    -0.01550
Br632      Br  0.21701863  0.79289616  0.68046650    -0.01540
C633        C  0.27330709  0.89544497  0.65324147    -0.02660
C634        C  0.30704240  0.86483052  0.62919611     0.07020
C635        C  0.28498880  0.84320560  0.58891528    -0.02780
C636        C  0.23429087  0.84083049  0.58428487    -0.02780
C637        C  0.20133059  0.86713642  0.61462412     0.07150
C638        C  0.22503749  0.90181945  0.64043775    -0.02970
Br639      Br  0.21025653  0.96323097  0.61473944    -0.01520
Br640      Br  0.29166342  0.94193571  0.69323794    -0.01590
Br641      Br  0.21153145  0.80153588  0.53589117    -0.01550
Br642      Br  0.32464802  0.81704612  0.53926000    -0.01540
C643        C  0.11689121  0.91333814  0.70348633    -0.02660
C644        C  0.12546229  0.86654230  0.68022230     0.07020
C645        C  0.09918724  0.83214668  0.70630446    -0.02780
C646        C  0.09328091  0.83553282  0.75671358    -0.02780
C647        C  0.11014397  0.87542498  0.78360991     0.07150
C648        C  0.10612807  0.91725494  0.75417440    -0.02970
Br649      Br  0.07762173  0.97638657  0.77860178    -0.01520
Br650      Br  0.11164337  0.97260408  0.66941081    -0.01590
Br651      Br  0.04734294  0.79681020  0.78482222    -0.01550
Br652      Br  0.05180596  0.79848418  0.67283937    -0.01540
C653        C  0.20883617  0.87188869  0.89098979    -0.02660
C654        C  0.18470966  0.88590238  0.84890395     0.07020
C655        C  0.21614715  0.91085721  0.81802864    -0.02780
C656        C  0.26429994  0.91906925  0.82753616    -0.02780
C657        C  0.28985082  0.89522075  0.86275989     0.07150
C658        C  0.25852996  0.87738209  0.89758179    -0.02970
Br659      Br  0.27965508  0.87834760  0.95977198    -0.01520
Br660      Br  0.17520288  0.84233062  0.94094912    -0.01590
Br661      Br  0.28646983  0.97856854  0.80712399    -0.01550
Br662      Br  0.20386111  0.92674813  0.75602933    -0.01540
C663        C  0.16063865  0.59092400  0.78311648    -0.02660
C664        C  0.13472824  0.62746373  0.80806024     0.07020
C665        C  0.09733794  0.64383704  0.77853155    -0.02780
C666        C  0.09623911  0.63744643  0.72746458    -0.02780
C667        C  0.13560697  0.61763343  0.70165861     0.07150
C668        C  0.16498674  0.58945860  0.73201138    -0.02970
Br669      Br  0.20429946  0.54011133  0.70569648    -0.01520
Br670      Br  0.17063709  0.53152012  0.81502585    -0.01590
Br671      Br  0.04977928  0.67355343  0.69369566    -0.01550
Br672      Br  0.04912769  0.68075276  0.80565773    -0.01540
C673        C  0.21145974  0.67157628  0.91862830    -0.02660
C674        C  0.19133259  0.63452374  0.89075843     0.07020
C675        C  0.22019105  0.59136796  0.89671313    -0.02780
C676        C  0.27056661  0.59560150  0.89902306    -0.02780
C677        C  0.29177953  0.64248582  0.89565307     0.07150
C678        C  0.26078670  0.67833269  0.91767725    -0.02970
Br679      Br  0.28100208  0.73264125  0.95390953    -0.01520
Br680      Br  0.17308941  0.70378449  0.96605830    -0.01590
Br681      Br  0.30744218  0.53678308  0.90480378    -0.01550
Br682      Br  0.19574065  0.53236803  0.92323122    -0.01540
C683        C  0.09409461  0.78720448  0.88395164    -0.02660
C684        C  0.12569702  0.81278815  0.85325913     0.07020
C685        C  0.15855068  0.78160979  0.83196854    -0.02780
C686        C  0.16539529  0.73201333  0.84106843    -0.02780
C687        C  0.13266559  0.70385203  0.86563717     0.07150
C688        C  0.09663390  0.73408287  0.88889880    -0.02970
Br689      Br  0.04951274  0.70525795  0.92797933    -0.01520
Br690      Br  0.04350718  0.82184093  0.91570571    -0.01590
Br691      Br  0.22465369  0.70692120  0.82069581    -0.01550
Br692      Br  0.19026103  0.80610737  0.78180394    -0.01540
N693        N  0.90903743  0.44442890  0.05989568    -0.06930
N694        N  0.87511967  0.41504874  0.07299751    -0.59050
N695        N  0.94474481  0.04885072  0.10200635    -0.06610
N696        N  0.93148394  0.07378100  0.14055432    -0.61180
N697        N  0.91549374  0.05862309  0.06781708    -0.06210
N698        N  0.88490477  0.09272367  0.08129238    -0.59030
N699        N  0.94573930  0.43630938  0.08647562    -0.05890
N700        N  0.93768324  0.40040787  0.11629324    -0.61530
C701        C  0.89315671  0.38706681  0.10830016     0.95240
C702        C  0.89359180  0.10085327  0.12740255     0.95020
N703        N  0.58925226  0.05127821  0.05907390    -0.07120
N704        N  0.62325665  0.08085238  0.07054094    -0.59630
N705        N  0.55751153  0.43384944  0.07767428    -0.05240
N706        N  0.56954434  0.39846859  0.10660890    -0.60880
N707        N  0.59048293  0.43937365  0.04560824    -0.07150
N708        N  0.62628135  0.40915040  0.05413453    -0.59900
N709        N  0.55993391  0.04744246  0.09487132    -0.04880
N710        N  0.57456723  0.07452069  0.13102530    -0.60970
Mn711      Mn  0.50199626  0.49143707  0.09103715     1.18440
C712        C  0.61474204  0.09549663  0.11566248     0.97320
C713        C  0.61281765  0.38301736  0.09233459     0.97990
N714        N  0.90506638  0.06956469  0.45692788    -0.07170
N715        N  0.87132276  0.10295919  0.45015203    -0.63480
N716        N  0.93322142  0.45538732  0.41222632    -0.05970
N717        N  0.92035748  0.42557413  0.37792007    -0.64150
N718        N  0.90081877  0.45724985  0.44555844    -0.06680
N719        N  0.86496440  0.43044998  0.43301897    -0.63740
N720        N  0.93408043  0.06815040  0.42062740    -0.05570
N721        N  0.91912699  0.09905676  0.38862404    -0.64430
Mn722      Mn  0.90704317  0.00768134  0.50788459     1.10660
C723        C  0.88038158  0.12220559  0.40687522     0.98550
C724        C  0.87715883  0.41046924  0.39039267     0.98620
N725        N  0.58214730  0.45242795  0.43146447    -0.06680
N726        N  0.61562770  0.42332041  0.41433625    -0.62060
N727        N  0.54946294  0.06539966  0.41137468    -0.06000
N728        N  0.56335518  0.09590517  0.37800584    -0.58790
N729        N  0.58048324  0.06441896  0.44538149    -0.07310
N730        N  0.61385429  0.09546444  0.43647986    -0.61620
N731        N  0.54688605  0.45307304  0.40211016    -0.06300
N732        N  0.55595396  0.42341328  0.36546090    -0.58810
Mn733      Mn  0.58585390  0.50214629  0.99531013     1.20190
Mn734      Mn  0.99077308  0.01029592  0.41082966     1.10090
Cl735      Cl  0.49650423  0.00292158  0.00114352    -0.86780
C736        C  0.59931113  0.40440795  0.37334935     0.95550
C737        C  0.60375726  0.11531737  0.39419441     0.95350
C738        C  0.64035822  0.14420103  0.36463950    -0.03300
C739        C  0.62902462  0.37063539  0.33917557    -0.03300
C740        C  0.64577512  0.35380936  0.12545039    -0.03300
C741        C  0.64650347  0.13023479  0.14557777    -0.03300
C742        C  0.84477939  0.15251433  0.37566347    -0.03300
C743        C  0.86244599  0.13509186  0.15853871    -0.03300
C744        C  0.86410203  0.35451584  0.14257423    -0.03300
C745        C  0.84596770  0.37844262  0.35810702    -0.03300
C746        C  0.89531224  0.34150087  0.28392490    -0.02660
C747        C  0.86936568  0.38131453  0.30376083     0.07020
C748        C  0.87615540  0.42192989  0.27290940    -0.02780
C749        C  0.88299705  0.41429705  0.22202752    -0.02780
C750        C  0.87941479  0.36683120  0.19952013     0.07150
C751        C  0.89845824  0.33275943  0.23351574    -0.02970
Br752      Br  0.94357996  0.28335137  0.21686539    -0.01520
Br753      Br  0.94147755  0.31298164  0.32472509    -0.01590
Br754      Br  0.90603544  0.46862949  0.18730639    -0.01550
Br755      Br  0.89594941  0.48409223  0.29852364    -0.01540
C756        C  0.91605753  0.26759023  0.11980410    -0.02660
C757        C  0.87405245  0.29630474  0.12990341     0.07020
C758        C  0.83630319  0.26554733  0.13329303    -0.02780
C759        C  0.83955587  0.21651832  0.11989606    -0.02780
C760        C  0.87418724  0.19000143  0.14195957     0.07150
C761        C  0.91722354  0.21469617  0.13038148    -0.02970
Br762      Br  0.97095214  0.17734882  0.11121243    -0.01520
Br763      Br  0.96756977  0.29633314  0.08828367    -0.01830
Br764      Br  0.84070778  0.19927362  0.05388397    -0.01550
Br765      Br  0.81743156  0.27537765  0.19272107    -0.01540
C766        C  0.82560666  0.11037862  0.28925547    -0.02660
C767        C  0.85627476  0.13315576  0.32116009     0.07020
C768        C  0.90108664  0.13969257  0.29812287    -0.02780
C769        C  0.90807448  0.13493666  0.24705790    -0.02780
C770        C  0.86999497  0.12687731  0.21577418     0.07150
C771        C  0.83631966  0.10281979  0.24101557    -0.02970
Br772      Br  0.81998375  0.04482240  0.21490579    -0.01520
Br773      Br  0.76377578  0.09635667  0.29882820    -0.01590
Br774      Br  0.96747336  0.10906785  0.23033842    -0.01550
Br775      Br  0.94592675  0.17732358  0.33036250    -0.01540
C776        C  0.87704242  0.24172083  0.40937831    -0.02660
C777        C  0.85205665  0.21171421  0.37634381     0.07020
C778        C  0.83142007  0.23969675  0.34048044    -0.02780
C779        C  0.82187521  0.28984460  0.34371472    -0.02780
C780        C  0.84696078  0.32100337  0.37306113     0.07150
C781        C  0.87453322  0.29504188  0.40797676    -0.02970
Br782      Br  0.91315137  0.32904696  0.45209765    -0.01520
Br783      Br  0.91656495  0.21203587  0.45598778    -0.01590
Br784      Br  0.79066057  0.31689908  0.29148045    -0.01550
Br785      Br  0.85622377  0.22953784  0.28000861    -0.01540
C786        C  0.73308223  0.08742020  0.11099710    -0.02660
C787        C  0.70290094  0.12386647  0.13434546     0.07020
C788        C  0.72937644  0.16491425  0.13859770    -0.02780
C789        C  0.77230274  0.16056164  0.16016954    -0.02780
C790        C  0.80644465  0.12557125  0.14549114     0.07150
C791        C  0.78370217  0.08648809  0.11884219    -0.02970
Br792      Br  0.81390027  0.02587386  0.09875272    -0.01520
Br793      Br  0.71787196  0.06264395  0.04936849    -0.01590
Br794      Br  0.76812883  0.18220295  0.22132800    -0.01550
Br795      Br  0.73096315  0.19604102  0.07916082    -0.01540
C796        C  0.61559018  0.26493758  0.08758329    -0.02660
C797        C  0.64214097  0.29530991  0.11882814     0.07020
C798        C  0.66542697  0.26853290  0.15222949    -0.02780
C799        C  0.65293432  0.22277222  0.16589526    -0.02780
C800        C  0.63457113  0.18815666  0.13486606     0.07150
C801        C  0.61401687  0.21188032  0.09393257    -0.02970
Br802      Br  0.57943912  0.17634319  0.04814645    -0.01520
Br803      Br  0.58394496  0.29358452  0.03491366    -0.01590
Br804      Br  0.65980027  0.21465749  0.23005827    -0.01550
Br805      Br  0.71701849  0.29289704  0.18046704    -0.01540
C806        C  0.77330677  0.39544491  0.15324202    -0.02660
C807        C  0.80704218  0.36483048  0.12919670     0.07020
C808        C  0.78498868  0.34320554  0.08891587    -0.02780
C809        C  0.73429073  0.34083065  0.08428509    -0.02780
C810        C  0.70133030  0.36713665  0.11462418     0.07150
C811        C  0.72503717  0.40181933  0.14043830    -0.02970
Br812      Br  0.71025573  0.46323118  0.11474128    -0.01520
Br813      Br  0.79166237  0.44193460  0.19324012    -0.01590
Br814      Br  0.71153150  0.30153619  0.03589113    -0.01550
Br815      Br  0.82464836  0.31704539  0.03926135    -0.01540
C816        C  0.61688996  0.41333775  0.20348650    -0.02660
C817        C  0.62546169  0.36654209  0.18022232     0.07020
C818        C  0.59918691  0.33214610  0.20630428    -0.02780
C819        C  0.59328051  0.33553180  0.25671342    -0.02780
C820        C  0.61014284  0.37542423  0.28360999     0.07150
C821        C  0.60612644  0.41725420  0.25417453    -0.02970
Br822      Br  0.57762028  0.47638582  0.27860216    -0.01520
Br823      Br  0.61164199  0.47260395  0.16941132    -0.01590
Br824      Br  0.54734376  0.29680724  0.28482172    -0.01550
Br825      Br  0.55180572  0.29848383  0.17283888    -0.01540
C826        C  0.70883523  0.37188803  0.39098951    -0.02660
C827        C  0.68470849  0.38590235  0.34890405     0.07020
C828        C  0.71614590  0.41085756  0.31802889    -0.02780
C829        C  0.76429889  0.41906917  0.32753613    -0.02780
C830        C  0.78984991  0.39522002  0.36275933     0.07150
C831        C  0.75852923  0.37738038  0.39758074    -0.02970
Br832      Br  0.77965681  0.37833925  0.45976953    -0.01520
Br833      Br  0.67520182  0.34233067  0.44094932    -0.01590
Br834      Br  0.78646907  0.47856871  0.30712498    -0.01550
Br835      Br  0.70385886  0.42675072  0.25603042    -0.01540
C836        C  0.66064029  0.09092332  0.28311626    -0.02660
C837        C  0.63472991  0.12746304  0.30806020     0.07020
C838        C  0.59733951  0.14383624  0.27853169    -0.02780
C839        C  0.59624059  0.13744606  0.22746472    -0.02780
C840        C  0.63560832  0.11763308  0.20165856     0.07150
C841        C  0.66498817  0.08945805  0.23201110    -0.02970
Br842      Br  0.70430069  0.04011067  0.20569586    -0.01520
Br843      Br  0.67063917  0.03151928  0.31502532    -0.01590
Br844      Br  0.54978076  0.17355353  0.19369631    -0.01550
Br845      Br  0.54912857  0.18075019  0.30565853    -0.01540
C846        C  0.71146110  0.17157576  0.41862835    -0.02660
C847        C  0.69133405  0.13452324  0.39075839     0.07020
C848        C  0.72019258  0.09136747  0.39671294    -0.02780
C849        C  0.77056812  0.09560110  0.39902282    -0.02780
C850        C  0.79178086  0.14248549  0.39565295     0.07150
C851        C  0.76078805  0.17833215  0.41767740    -0.02970
Br852      Br  0.78100370  0.23263979  0.45391075    -0.01520
Br853      Br  0.67309073  0.20378385  0.46605840    -0.01590
Br854      Br  0.80744393  0.03678274  0.40480279    -0.01550
Br855      Br  0.69574231  0.03236739  0.42323081    -0.01540
C856        C  0.59409454  0.28720347  0.38395174    -0.02660
C857        C  0.62569661  0.31278755  0.35325924     0.07020
C858        C  0.65855068  0.28160955  0.33196875    -0.02780
C859        C  0.66539591  0.23201313  0.34106865    -0.02780
C860        C  0.63266653  0.20385139  0.36563733     0.07150
C861        C  0.59663451  0.23408186  0.38889898    -0.02970
Br862      Br  0.54951384  0.20525653  0.42797981    -0.01520
Br863      Br  0.54350670  0.32183942  0.41570562    -0.01590
Br864      Br  0.72465467  0.20692170  0.32069628    -0.01550
Br865      Br  0.69026077  0.30610761  0.28180429    -0.01540
N866        N  0.90903741  0.44442893  0.55989569    -0.06930
N867        N  0.87511964  0.41504878  0.57299753    -0.59050
N868        N  0.94474481  0.04885075  0.60200634    -0.06610
N869        N  0.93148396  0.07378103  0.64055432    -0.61180
N870        N  0.91549374  0.05862313  0.56781708    -0.06210
N871        N  0.88490478  0.09272372  0.58129239    -0.59030
N872        N  0.94573928  0.43630942  0.58647564    -0.05890
N873        N  0.93768321  0.40040793  0.61629326    -0.61530
C874        C  0.89315668  0.38706687  0.60830019     0.95240
C875        C  0.89359182  0.10085331  0.62740256     0.95020
N876        N  0.58925226  0.05127819  0.55907389    -0.07120
N877        N  0.62325665  0.08085234  0.57054093    -0.59630
N878        N  0.55751151  0.43384943  0.57767429    -0.05240
N879        N  0.56954432  0.39846859  0.60660891    -0.60880
N880        N  0.59048290  0.43937364  0.54560824    -0.07150
N881        N  0.62628132  0.40915039  0.55413454    -0.59900
N882        N  0.55993390  0.04744245  0.59487130    -0.04880
N883        N  0.57456722  0.07452068  0.63102528    -0.60970
Mn884      Mn  0.50199624  0.49143709  0.59103715     1.18440
C885        C  0.61474203  0.09549661  0.61566247     0.97320
C886        C  0.61281763  0.38301735  0.59233461     0.97990
N887        N  0.90506640  0.06956467  0.95692790    -0.07170
N888        N  0.87132278  0.10295917  0.95015207    -0.63480
N889        N  0.93322143  0.45538730  0.91222633    -0.05970
N890        N  0.92035748  0.42557411  0.87792008    -0.64150
N891        N  0.90081879  0.45724983  0.94555845    -0.06680
N892        N  0.86496442  0.43044996  0.93301900    -0.63740
N893        N  0.93408044  0.06815037  0.92062742    -0.05570
N894        N  0.91912698  0.09905672  0.88862406    -0.64430
Mn895      Mn  0.90704319  0.00768132  0.00788459     1.10660
C896        C  0.88038159  0.12220556  0.90687525     0.98550
C897        C  0.87715882  0.41046923  0.89039269     0.98620
N898        N  0.58214733  0.45242797  0.93146446    -0.06680
N899        N  0.61562773  0.42332043  0.91433623    -0.62060
N900        N  0.54946295  0.06539968  0.91137467    -0.06000
N901        N  0.56335519  0.09590519  0.87800583    -0.58790
N902        N  0.58048324  0.06441899  0.94538148    -0.07310
N903        N  0.61385430  0.09546447  0.93647985    -0.61620
N904        N  0.54688607  0.45307306  0.90211016    -0.06300
N905        N  0.55595397  0.42341329  0.86546089    -0.58810
Mn906      Mn  0.58585388  0.50214627  0.49531013     1.20190
Mn907      Mn  0.99077309  0.01029591  0.91082966     1.10090
Cl908      Cl  0.49650421  0.00292158  0.50114351    -0.86780
C909        C  0.59931115  0.40440797  0.87334934     0.95550
C910        C  0.60375727  0.11531740  0.89419439     0.95350
C911        C  0.64035823  0.14420106  0.86463948    -0.03300
C912        C  0.62902462  0.37063541  0.83917554    -0.03300
C913        C  0.64577509  0.35380935  0.62545041    -0.03300
C914        C  0.64650345  0.13023476  0.64557776    -0.03300
C915        C  0.84477942  0.15251432  0.87566351    -0.03300
C916        C  0.86244600  0.13509188  0.65853876    -0.03300
C917        C  0.86410201  0.35451591  0.64257427    -0.03300
C918        C  0.84596768  0.37844261  0.85810706    -0.03300
C919        C  0.89531220  0.34150091  0.78392492    -0.02660
C920        C  0.86936561  0.38131454  0.80376086     0.07020
C921        C  0.87615534  0.42192993  0.77290945    -0.02780
C922        C  0.88299701  0.41429712  0.72202757    -0.02780
C923        C  0.87941479  0.36683128  0.69952017     0.07150
C924        C  0.89845827  0.33275952  0.73351576    -0.02970
Br925      Br  0.94358007  0.28335158  0.71686537    -0.01520
Br926      Br  0.94147752  0.31298170  0.82472512    -0.01590
Br927      Br  0.90603543  0.46862956  0.68730645    -0.01550
Br928      Br  0.89594934  0.48409226  0.79852372    -0.01540
C929        C  0.91605749  0.26759028  0.61980414    -0.02660
C930        C  0.87405243  0.29630480  0.62990348     0.07020
C931        C  0.83630318  0.26554740  0.63329319    -0.02780
C932        C  0.83955583  0.21651838  0.61989622    -0.02780
C933        C  0.87418722  0.19000147  0.64195966     0.07150
C934        C  0.91722352  0.21469623  0.63038153    -0.02970
Br935      Br  0.97095211  0.17734889  0.61121244    -0.01520
Br936      Br  0.96756973  0.29633320  0.58828367    -0.01830
Br937      Br  0.84070771  0.19927369  0.55388412    -0.01550
Br938      Br  0.81743167  0.27537781  0.69272128    -0.01540
C939        C  0.82560667  0.11037865  0.78925550    -0.02660
C940        C  0.85627477  0.13315578  0.82116012     0.07020
C941        C  0.90108666  0.13969255  0.79812291    -0.02780
C942        C  0.90807451  0.13493664  0.74705794    -0.02780
C943        C  0.86999499  0.12687730  0.71577422     0.07150
C944        C  0.83631969  0.10281978  0.74101561    -0.02970
Br945      Br  0.81998373  0.04482243  0.71490583    -0.01520
Br946      Br  0.76377576  0.09635677  0.79882819    -0.01590
Br947      Br  0.96747339  0.10906783  0.73033844    -0.01550
Br948      Br  0.94592685  0.17732344  0.83036258    -0.01540
C949        C  0.87704248  0.24172081  0.90937836    -0.02660
C950        C  0.85205671  0.21171420  0.87634387     0.07020
C951        C  0.83142014  0.23969672  0.84048050    -0.02780
C952        C  0.82187520  0.28984455  0.84371485    -0.02780
C953        C  0.84696079  0.32100335  0.87306121     0.07150
C954        C  0.87453326  0.29504187  0.90797681    -0.02970
Br955      Br  0.91315143  0.32904696  0.95209768    -0.01520
Br956      Br  0.91656506  0.21203585  0.95598779    -0.01590
Br957      Br  0.79066045  0.31689895  0.79148067    -0.01550
Br958      Br  0.85622412  0.22953801  0.78000874    -0.01540
C959        C  0.73308225  0.08742024  0.61099710    -0.02660
C960        C  0.70290094  0.12386646  0.63434550     0.07020
C961        C  0.72937642  0.16491423  0.63859788    -0.02780
C962        C  0.77230275  0.16056159  0.66016968    -0.02780
C963        C  0.80644466  0.12557126  0.64549119     0.07150
C964        C  0.78370219  0.08648813  0.61884220    -0.02970
Br965      Br  0.81390028  0.02587390  0.59875272    -0.01520
Br966      Br  0.71787198  0.06264401  0.54936848    -0.01590
Br967      Br  0.76812909  0.18220311  0.72132809    -0.01550
Br968      Br  0.73096313  0.19604111  0.57916106    -0.01540
C969        C  0.61559016  0.26493757  0.58758329    -0.02660
C970        C  0.64214093  0.29530990  0.61882816     0.07020
C971        C  0.66542688  0.26853288  0.65222955    -0.02780
C972        C  0.65293423  0.22277219  0.66589529    -0.02780
C973        C  0.63457110  0.18815664  0.63486606     0.07150
C974        C  0.61401685  0.21188030  0.59393257    -0.02970
Br975      Br  0.57943912  0.17634317  0.54814643    -0.01520
Br976      Br  0.58394496  0.29358451  0.53491365    -0.01590
Br977      Br  0.65980053  0.21465728  0.73005823    -0.01550
Br978      Br  0.71701860  0.29289683  0.68046684    -0.01540
C979        C  0.77330673  0.39544492  0.65324208    -0.02660
C980        C  0.80704216  0.36483052  0.62919674     0.07020
C981        C  0.78498867  0.34320558  0.58891591    -0.02780
C982        C  0.73429072  0.34083070  0.58428511    -0.02780
C983        C  0.70133028  0.36713665  0.61462422     0.07150
C984        C  0.72503713  0.40181933  0.64043835    -0.02970
Br985      Br  0.71025574  0.46323117  0.61474127    -0.01520
Br986      Br  0.79166233  0.44193463  0.69324015    -0.01590
Br987      Br  0.71153150  0.30153620  0.53589116    -0.01550
Br988      Br  0.82464838  0.31704540  0.53926143    -0.01540
C989        C  0.61688996  0.41333777  0.70348649    -0.02660
C990        C  0.62546167  0.36654210  0.68022233     0.07020
C991        C  0.59918686  0.33214613  0.70630429    -0.02780
C992        C  0.59328042  0.33553187  0.75671342    -0.02780
C993        C  0.61014281  0.37542427  0.78360998     0.07150
C994        C  0.60612643  0.41725424  0.75417452    -0.02970
Br995      Br  0.57762027  0.47638586  0.77860214    -0.01520
Br996      Br  0.61164199  0.47260396  0.66941129    -0.01590
Br997      Br  0.54734367  0.29680735  0.78482174    -0.01550
Br998      Br  0.55180571  0.29848381  0.67283888    -0.01540
C999        C  0.70883522  0.37188801  0.89098951    -0.02660
C1000       C  0.68470850  0.38590231  0.84890403     0.07020
C1001       C  0.71614591  0.41085753  0.81802888    -0.02780
C1002       C  0.76429890  0.41906916  0.82753614    -0.02780
C1003       C  0.78984990  0.39522002  0.86275937     0.07150
C1004       C  0.75852921  0.37738040  0.89758078    -0.02970
Br1005     Br  0.77965670  0.37833950  0.95976961    -0.01520
Br1006     Br  0.67520180  0.34233064  0.94094929    -0.01590
Br1007     Br  0.78646902  0.47856875  0.80712505    -0.01550
Br1008     Br  0.70385885  0.42675076  0.75603044    -0.01540
C1009       C  0.66064026  0.09092330  0.78311624    -0.02660
C1010       C  0.63472991  0.12746305  0.80806018     0.07020
C1011       C  0.59733951  0.14383628  0.77853166    -0.02780
C1012       C  0.59624057  0.13744607  0.72746471    -0.02780
C1013       C  0.63560828  0.11763303  0.70165854     0.07150
C1014       C  0.66498812  0.08945801  0.73201109    -0.02970
Br1015     Br  0.70430067  0.04011065  0.70569585    -0.01520
Br1016     Br  0.67063919  0.03151928  0.81502533    -0.01590
Br1017     Br  0.54978074  0.17355354  0.69369629    -0.01550
Br1018     Br  0.54912861  0.18075031  0.80565849    -0.01540
C1019       C  0.71146111  0.17157577  0.91862833    -0.02660
C1020       C  0.69133407  0.13452326  0.89075835     0.07020
C1021       C  0.72019259  0.09136749  0.89671292    -0.02780
C1022       C  0.77056813  0.09560111  0.89902282    -0.02780
C1023       C  0.79178087  0.14248550  0.89565297     0.07150
C1024       C  0.76078806  0.17833216  0.91767741    -0.02970
Br1025     Br  0.78100368  0.23263985  0.95391070    -0.01520
Br1026     Br  0.67309072  0.20378387  0.96605836    -0.01590
Br1027     Br  0.80744393  0.03678275  0.90480282    -0.01550
Br1028     Br  0.69574231  0.03236742  0.92323082    -0.01540
C1029       C  0.59409457  0.28720349  0.88395171    -0.02660
C1030       C  0.62569661  0.31278757  0.85325918     0.07020
C1031       C  0.65855065  0.28160958  0.83196863    -0.02780
C1032       C  0.66539591  0.23201318  0.84106858    -0.02780
C1033       C  0.63266656  0.20385143  0.86563729     0.07150
C1034       C  0.59663454  0.23408189  0.88889895    -0.02970
Br1035     Br  0.54951389  0.20525656  0.92797979    -0.01520
Br1036     Br  0.54350675  0.32183945  0.91570563    -0.01590
Br1037     Br  0.72465473  0.20692184  0.82069632    -0.01550
Br1038     Br  0.69026066  0.30610765  0.78180405    -0.01540
N1039       N  0.90903812  0.94442896  0.05989554    -0.06930
N1040       N  0.87512026  0.91504881  0.07299717    -0.59050
N1041       N  0.94474381  0.54885069  0.10200634    -0.06610
N1042       N  0.93148286  0.57378096  0.14055429    -0.61180
N1043       N  0.91549267  0.55862292  0.06781709    -0.06210
N1044       N  0.88490356  0.59272337  0.08129238    -0.59030
N1045       N  0.94573991  0.93630930  0.08647555    -0.05890
N1046       N  0.93768369  0.90040766  0.11629299    -0.61530
C1047       C  0.89315713  0.88706670  0.10829977     0.95240
C1048       C  0.89359059  0.60085304  0.12740252     0.95020
N1049       N  0.58925121  0.55127852  0.05907380    -0.07120
N1050       N  0.62325549  0.58085283  0.07054083    -0.59630
N1051       N  0.55751211  0.93384938  0.07767425    -0.05240
N1052       N  0.56954484  0.89846858  0.10660893    -0.60880
N1053       N  0.59048352  0.93937349  0.04560821    -0.07150
N1054       N  0.62628187  0.90915019  0.05413452    -0.59900
N1055       N  0.55993296  0.54744257  0.09487128    -0.04880
N1056       N  0.57456628  0.57452071  0.13102531    -0.60970
Mn1057     Mn  0.50199703  0.99143702  0.09103715     1.18440
C1058       C  0.61474094  0.59549689  0.11566245     0.97320
C1059       C  0.61281810  0.88301730  0.09233462     0.97990
N1060       N  0.90506517  0.56956459  0.45692800    -0.07170
N1061       N  0.87132155  0.60295912  0.45015219    -0.63480
N1062       N  0.93322253  0.95538735  0.41222619    -0.05970
N1063       N  0.92035854  0.92557403  0.37792003    -0.64150
N1064       N  0.90081997  0.95724991  0.44555838    -0.06680
N1065       N  0.86496567  0.93044992  0.43301908    -0.63740
N1066       N  0.93407914  0.56815022  0.42062746    -0.05570
N1067       N  0.91912559  0.59905647  0.38862407    -0.64430
Mn1068     Mn  0.90704212  0.50768122  0.50788468     1.10660
C1069       C  0.88038026  0.62220539  0.40687530     0.98550
C1070       C  0.87715993  0.91046908  0.39039281     0.98620
N1071       N  0.58214830  0.95242794  0.43146453    -0.06680
N1072       N  0.61562879  0.92332060  0.41433621    -0.62060
N1073       N  0.54946165  0.56539988  0.41137457    -0.06000
N1074       N  0.56335367  0.59590569  0.37800585    -0.58790
N1075       N  0.58048195  0.56441926  0.44538137    -0.07310
N1076       N  0.61385275  0.59546507  0.43647989    -0.61620
N1077       N  0.54688713  0.95307320  0.40211011    -0.06300
N1078       N  0.55595519  0.92341380  0.36546064    -0.58810
Mn1079     Mn  0.58585487  0.00214608  0.99531022     1.20190
Mn1080     Mn  0.99077192  0.51029587  0.41082968     1.10090
Cl1081     Cl  0.49650324  0.50292157  0.00114353    -0.86780
C1082       C  0.59931236  0.90440852  0.37334912     0.95550
C1083       C  0.60375563  0.61531814  0.39419451     0.95350
C1084       C  0.64035672  0.64420166  0.36463955    -0.03300
C1085       C  0.62902569  0.87063586  0.33917546    -0.03300
C1086       C  0.64577545  0.85380930  0.12545034    -0.03300
C1087       C  0.64650235  0.63023496  0.14557781    -0.03300
C1088       C  0.84477817  0.65251434  0.37566357    -0.03300
C1089       C  0.86244481  0.63509178  0.15853856    -0.03300
C1090       C  0.86410220  0.85451572  0.14257374    -0.03300
C1091       C  0.84596841  0.87844269  0.35810729    -0.03300
C1092       C  0.89531231  0.84150033  0.28392471    -0.02660
C1093       C  0.86936626  0.88131428  0.30376091     0.07020
C1094       C  0.87615598  0.92192955  0.27290934    -0.02780
C1095       C  0.88299733  0.91429673  0.22202740    -0.02780
C1096       C  0.87941490  0.86683093  0.19951985     0.07150
C1097       C  0.89845826  0.83275904  0.23351546    -0.02970
Br1098     Br  0.94357957  0.78335061  0.21686491    -0.01520
Br1099     Br  0.94147666  0.81297943  0.32472492    -0.01590
Br1100     Br  0.90603643  0.96862900  0.18730644    -0.01550
Br1101     Br  0.89595027  0.98409183  0.29852353    -0.01540
C1102       C  0.91605705  0.76758979  0.11980353    -0.02660
C1103       C  0.87405215  0.79630461  0.12990274     0.07020
C1104       C  0.83630269  0.76554747  0.13329264    -0.02780
C1105       C  0.83955499  0.71651843  0.11989571    -0.02780
C1106       C  0.87418627  0.69000128  0.14195916     0.07150
C1107       C  0.91722271  0.71469572  0.13038087    -0.02970
Br1108     Br  0.97095099  0.67734804  0.11121145    -0.01520
Br1109     Br  0.96756982  0.79633251  0.08828378    -0.01830
Br1110     Br  0.84070643  0.69927400  0.05388356    -0.01550
Br1111     Br  0.81743161  0.77537775  0.19272099    -0.01540
C1112       C  0.82560517  0.61037884  0.28925541    -0.02660
C1113       C  0.85627342  0.63315567  0.32116014     0.07020
C1114       C  0.90108536  0.63969216  0.29812288    -0.02780
C1115       C  0.90807318  0.63493627  0.24705789    -0.02780
C1116       C  0.86999362  0.62687728  0.21577410     0.07150
C1117       C  0.83631809  0.60281999  0.24101547    -0.02970
Br1118     Br  0.81998238  0.54482227  0.21490596    -0.01520
Br1119     Br  0.76377442  0.59635654  0.29882834    -0.01590
Br1120     Br  0.96747213  0.60906764  0.23033837    -0.01550
Br1121     Br  0.94592596  0.67732252  0.33036250    -0.01540
C1122       C  0.87704171  0.74172061  0.40937864    -0.02660
C1123       C  0.85205585  0.71171420  0.37634401     0.07020
C1124       C  0.83141940  0.73969697  0.34048071    -0.02780
C1125       C  0.82187498  0.78984493  0.34371500    -0.02780
C1126       C  0.84696072  0.82100347  0.37306153     0.07150
C1127       C  0.87453288  0.79504170  0.40797717    -0.02970
Br1128     Br  0.91315150  0.82904646  0.45209787    -0.01520
Br1129     Br  0.91656401  0.71203535  0.45598811    -0.01590
Br1130     Br  0.79066077  0.81689970  0.29148057    -0.01550
Br1131     Br  0.85622253  0.72953747  0.28000875    -0.01540
C1132       C  0.73308105  0.58741981  0.11099748    -0.02660
C1133       C  0.70289982  0.62386641  0.13434549     0.07020
C1134       C  0.72937537  0.66491422  0.13859691    -0.02780
C1135       C  0.77230166  0.66056193  0.16016884    -0.02780
C1136       C  0.80644350  0.62557126  0.14549093     0.07150
C1137       C  0.78370100  0.58648778  0.11884246    -0.02970
Br1138     Br  0.81389920  0.52587343  0.09875337    -0.01520
Br1139     Br  0.71787070  0.56264288  0.04936913    -0.01590
Br1140     Br  0.76812734  0.68220326  0.22132731    -0.01550
Br1141     Br  0.73096183  0.69603986  0.07915947    -0.01540
C1142       C  0.61558980  0.76493783  0.08758320    -0.02660
C1143       C  0.64214088  0.79530993  0.11882801     0.07020
C1144       C  0.66542682  0.76853273  0.15222920    -0.02780
C1145       C  0.65293365  0.72277230  0.16589511    -0.02780
C1146       C  0.63457021  0.68815684  0.13486603     0.07150
C1147       C  0.61401611  0.71188058  0.09393250    -0.02970
Br1148     Br  0.57943812  0.67634366  0.04814640    -0.01520
Br1149     Br  0.58394479  0.79358493  0.03491351    -0.01590
Br1150     Br  0.65979817  0.71465837  0.23005831    -0.01550
Br1151     Br  0.71701849  0.79289641  0.18046672    -0.01540
C1152       C  0.77330712  0.89544496  0.15324139    -0.02660
C1153       C  0.80704242  0.86483047  0.12919605     0.07020
C1154       C  0.78498880  0.84320555  0.08891523    -0.02780
C1155       C  0.73429087  0.84083044  0.08428484    -0.02780
C1156       C  0.70133061  0.86713642  0.11462406     0.07150
C1157       C  0.72503752  0.90181945  0.14043767    -0.02970
Br1158     Br  0.71025651  0.96323099  0.11473943    -0.01520
Br1159     Br  0.79166345  0.94193568  0.19323788    -0.01590
Br1160     Br  0.71153143  0.80153586  0.03589113    -0.01550
Br1161     Br  0.82464798  0.81704612  0.03925988    -0.01540
C1162       C  0.61689121  0.91333812  0.20348633    -0.02660
C1163       C  0.62546231  0.86654229  0.18022228     0.07020
C1164       C  0.59918731  0.83214665  0.20630445    -0.02780
C1165       C  0.59328102  0.83553275  0.25671358    -0.02780
C1166       C  0.61014401  0.87542494  0.28360992     0.07150
C1167       C  0.60612808  0.91725490  0.25417440    -0.02970
Br1168     Br  0.57762175  0.97638653  0.27860179    -0.01520
Br1169     Br  0.61164336  0.97260407  0.16941082    -0.01590
Br1170     Br  0.54734304  0.79681011  0.28482220    -0.01550
Br1171     Br  0.55180598  0.79848419  0.17283937    -0.01540
C1172       C  0.70883618  0.87188873  0.39098980    -0.02660
C1173       C  0.68470965  0.88590243  0.34890398     0.07020
C1174       C  0.71614713  0.91085725  0.31802864    -0.02780
C1175       C  0.76429994  0.91906928  0.32753615    -0.02780
C1176       C  0.78985083  0.89522075  0.36275984     0.07150
C1177       C  0.75852998  0.87738208  0.39758175    -0.02970
Br1178     Br  0.77965520  0.87834736  0.45977189    -0.01520
Br1179     Br  0.67520290  0.84233068  0.44094916    -0.01590
Br1180     Br  0.78646989  0.97856851  0.30712390    -0.01550
Br1181     Br  0.70386114  0.92674807  0.25602929    -0.01540
C1182       C  0.66063869  0.59092403  0.28311651    -0.02660
C1183       C  0.63472824  0.62746372  0.30806027     0.07020
C1184       C  0.59733794  0.64383701  0.27853158    -0.02780
C1185       C  0.59623913  0.63744642  0.22746460    -0.02780
C1186       C  0.63560703  0.61763348  0.20165864     0.07150
C1187       C  0.66498679  0.58945866  0.23201140    -0.02970
Br1188     Br  0.70429948  0.54011136  0.20569651    -0.01520
Br1189     Br  0.67063706  0.53152014  0.31502587    -0.01590
Br1190     Br  0.54977930  0.67355342  0.19369568    -0.01550
Br1191     Br  0.54912765  0.68075266  0.30565778    -0.01540
C1192       C  0.71145973  0.67157627  0.41862832    -0.02660
C1193       C  0.69133257  0.63452372  0.39075848     0.07020
C1194       C  0.72019105  0.59136795  0.39671315    -0.02780
C1195       C  0.77056661  0.59560150  0.39902307    -0.02780
C1196       C  0.79177952  0.64248581  0.39565305     0.07150
C1197       C  0.76078669  0.67833269  0.41767725    -0.02970
Br1198     Br  0.78100210  0.73264120  0.45390958    -0.01520
Br1199     Br  0.67308942  0.70378448  0.46605834    -0.01590
Br1200     Br  0.80744218  0.53678308  0.40480377    -0.01550
Br1201     Br  0.69574066  0.53236801  0.42323123    -0.01540
C1202       C  0.59409459  0.78720446  0.38395168    -0.02660
C1203       C  0.62569703  0.81278813  0.35325920     0.07020
C1204       C  0.65855072  0.78160976  0.33196869    -0.02780
C1205       C  0.66539529  0.73201329  0.34106851    -0.02780
C1206       C  0.63266557  0.70385200  0.36563723     0.07150
C1207       C  0.59663387  0.73408284  0.38889884    -0.02970
Br1208     Br  0.54951269  0.70525793  0.42797935    -0.01520
Br1209     Br  0.54350713  0.82184092  0.41570571    -0.01590
Br1210     Br  0.72465362  0.70692105  0.32069577    -0.01550
Br1211     Br  0.69026116  0.80610733  0.28180421    -0.01540
N1212       N  0.90903810  0.94442900  0.55989555    -0.06930
N1213       N  0.87512024  0.91504885  0.57299719    -0.59050
N1214       N  0.94474381  0.54885072  0.60200634    -0.06610
N1215       N  0.93148288  0.57378099  0.64055429    -0.61180
N1216       N  0.91549266  0.55862295  0.56781710    -0.06210
N1217       N  0.88490356  0.59272341  0.58129240    -0.59030
N1218       N  0.94573989  0.93630934  0.58647556    -0.05890
N1219       N  0.93768367  0.90040771  0.61629302    -0.61530
C1220       C  0.89315711  0.88706675  0.60829980     0.95240
C1221       C  0.89359060  0.60085307  0.62740254     0.95020
N1222       N  0.58925121  0.55127850  0.55907379    -0.07120
N1223       N  0.62325549  0.58085281  0.57054082    -0.59630
N1224       N  0.55751209  0.93384937  0.57767426    -0.05240
N1225       N  0.56954482  0.89846858  0.60660894    -0.60880
N1226       N  0.59048350  0.93937348  0.54560821    -0.07150
N1227       N  0.62628185  0.90915018  0.55413452    -0.59900
N1228       N  0.55993296  0.54744257  0.59487127    -0.04880
N1229       N  0.57456627  0.57452071  0.63102530    -0.60970
Mn1230     Mn  0.50199702  0.99143704  0.59103715     1.18440
C1231       C  0.61474093  0.59549688  0.61566244     0.97320
C1232       C  0.61281809  0.88301729  0.59233463     0.97990
N1233       N  0.90506517  0.56956457  0.95692802    -0.07170
N1234       N  0.87132156  0.60295911  0.95015223    -0.63480
N1235       N  0.93322255  0.95538734  0.91222620    -0.05970
N1236       N  0.92035855  0.92557402  0.87792004    -0.64150
N1237       N  0.90082000  0.95724989  0.94555840    -0.06680
N1238       N  0.86496569  0.93044991  0.93301911    -0.63740
N1239       N  0.93407914  0.56815020  0.92062748    -0.05570
N1240       N  0.91912557  0.59905644  0.88862410    -0.64430
Mn1241     Mn  0.90704214  0.50768119  0.00788469     1.10660
C1242       C  0.88038026  0.62220537  0.90687533     0.98550
C1243       C  0.87715994  0.91046907  0.89039283     0.98620
N1244       N  0.58214833  0.95242797  0.93146452    -0.06680
N1245       N  0.61562883  0.92332064  0.91433619    -0.62060
N1246       N  0.54946165  0.56539991  0.91137456    -0.06000
N1247       N  0.56335366  0.59590572  0.87800584    -0.58790
N1248       N  0.58048195  0.56441929  0.94538137    -0.07310
N1249       N  0.61385274  0.59546512  0.93647988    -0.61620
N1250       N  0.54688716  0.95307322  0.90211011    -0.06300
N1251       N  0.55595522  0.92341383  0.86546063    -0.58810
Mn1252     Mn  0.58585485  0.00214606  0.49531022     1.20190
Mn1253     Mn  0.99077192  0.51029587  0.91082968     1.10090
Cl1254     Cl  0.49650322  0.50292158  0.50114353    -0.86780
C1255       C  0.59931239  0.90440855  0.87334910     0.95550
C1256       C  0.60375562  0.61531818  0.89419450     0.95350
C1257       C  0.64035672  0.64420170  0.86463953    -0.03300
C1258       C  0.62902571  0.87063589  0.83917544    -0.03300
C1259       C  0.64577544  0.85380931  0.62545035    -0.03300
C1260       C  0.64650234  0.63023495  0.64557780    -0.03300
C1261       C  0.84477818  0.65251434  0.87566361    -0.03300
C1262       C  0.86244482  0.63509179  0.65853860    -0.03300
C1263       C  0.86410219  0.85451578  0.64257378    -0.03300
C1264       C  0.84596840  0.87844268  0.85810734    -0.03300
C1265       C  0.89531229  0.84150036  0.78392474    -0.02660
C1266       C  0.86936621  0.88131429  0.80376094     0.07020
C1267       C  0.87615593  0.92192958  0.77290939    -0.02780
C1268       C  0.88299729  0.91429678  0.72202744    -0.02780
C1269       C  0.87941489  0.86683100  0.69951988     0.07150
C1270       C  0.89845828  0.83275912  0.73351548    -0.02970
Br1271     Br  0.94357964  0.78335076  0.71686491    -0.01520
Br1272     Br  0.94147662  0.81297947  0.82472495    -0.01590
Br1273     Br  0.90603645  0.96862905  0.68730650    -0.01550
Br1274     Br  0.89595021  0.98409186  0.79852360    -0.01540
C1275       C  0.91605703  0.76758983  0.61980357    -0.02660
C1276       C  0.87405214  0.79630466  0.62990281     0.07020
C1277       C  0.83630268  0.76554752  0.63329278    -0.02780
C1278       C  0.83955496  0.71651848  0.61989585    -0.02780
C1279       C  0.87418627  0.69000132  0.64195925     0.07150
C1280       C  0.91722270  0.71469576  0.63038092    -0.02970
Br1281     Br  0.97095096  0.67734808  0.61121144    -0.01520
Br1282     Br  0.96756977  0.79633254  0.58828378    -0.01830
Br1283     Br  0.84070639  0.69927405  0.55388369    -0.01550
Br1284     Br  0.81743170  0.77537788  0.69272116    -0.01540
C1285       C  0.82560516  0.61037886  0.78925545    -0.02660
C1286       C  0.85627342  0.63315569  0.82116017     0.07020
C1287       C  0.90108537  0.63969214  0.79812291    -0.02780
C1288       C  0.90807319  0.63493626  0.74705793    -0.02780
C1289       C  0.86999364  0.62687726  0.71577414     0.07150
C1290       C  0.83631810  0.60281998  0.74101551    -0.02970
Br1291     Br  0.81998232  0.54482229  0.71490600    -0.01520
Br1292     Br  0.76377438  0.59635662  0.79882835    -0.01590
Br1293     Br  0.96747215  0.60906763  0.73033839    -0.01550
Br1294     Br  0.94592603  0.67732241  0.83036257    -0.01540
C1295       C  0.87704175  0.74172060  0.90937869    -0.02660
C1296       C  0.85205589  0.71171419  0.87634406     0.07020
C1297       C  0.83141945  0.73969696  0.84048077    -0.02780
C1298       C  0.82187496  0.78984490  0.84371511    -0.02780
C1299       C  0.84696072  0.82100347  0.87306160     0.07150
C1300       C  0.87453291  0.79504170  0.90797723    -0.02970
Br1301     Br  0.91315154  0.82904646  0.95209791    -0.01520
Br1302     Br  0.91656410  0.71203534  0.95598812    -0.01590
Br1303     Br  0.79066068  0.81689961  0.79148075    -0.01550
Br1304     Br  0.85622279  0.72953760  0.78000887    -0.01540
C1305       C  0.73308106  0.58741984  0.61099748    -0.02660
C1306       C  0.70289982  0.62386640  0.63434553     0.07020
C1307       C  0.72937536  0.66491421  0.63859705    -0.02780
C1308       C  0.77230166  0.66056189  0.66016896    -0.02780
C1309       C  0.80644352  0.62557126  0.64549098     0.07150
C1310       C  0.78370102  0.58648781  0.61884247    -0.02970
Br1311     Br  0.81389921  0.52587346  0.59875339    -0.01520
Br1312     Br  0.71787071  0.56264291  0.54936914    -0.01590
Br1313     Br  0.76812754  0.68220338  0.72132739    -0.01550
Br1314     Br  0.73096183  0.69603992  0.57915964    -0.01540
C1315       C  0.61558979  0.76493782  0.58758319    -0.02660
C1316       C  0.64214086  0.79530993  0.61882801     0.07020
C1317       C  0.66542676  0.76853272  0.65222924    -0.02780
C1318       C  0.65293360  0.72277229  0.66589512    -0.02780
C1319       C  0.63457019  0.68815683  0.63486602     0.07150
C1320       C  0.61401610  0.71188058  0.59393249    -0.02970
Br1321     Br  0.57943811  0.67634366  0.54814639    -0.01520
Br1322     Br  0.58394479  0.79358493  0.53491351    -0.01590
Br1323     Br  0.65979839  0.71465821  0.73005827    -0.01550
Br1324     Br  0.71701858  0.79289627  0.68046657    -0.01540
C1325       C  0.77330710  0.89544499  0.65324141    -0.02660
C1326       C  0.80704240  0.86483050  0.62919608     0.07020
C1327       C  0.78498880  0.84320557  0.58891526    -0.02780
C1328       C  0.73429087  0.84083046  0.58428485    -0.02780
C1329       C  0.70133060  0.86713643  0.61462407     0.07150
C1330       C  0.72503750  0.90181947  0.64043768    -0.02970
Br1331     Br  0.71025653  0.96323099  0.61473937    -0.01520
Br1332     Br  0.79166344  0.94193575  0.69323784    -0.01590
Br1333     Br  0.71153145  0.80153585  0.53589115    -0.01550
Br1334     Br  0.82464801  0.81704611  0.53925996    -0.01540
C1335       C  0.61689124  0.91333816  0.70348632    -0.02660
C1336       C  0.62546232  0.86654232  0.68022229     0.07020
C1337       C  0.59918728  0.83214669  0.70630446    -0.02780
C1338       C  0.59328096  0.83553283  0.75671358    -0.02780
C1339       C  0.61014401  0.87542500  0.78360991     0.07150
C1340       C  0.60612811  0.91725496  0.75417439    -0.02970
Br1341     Br  0.57762175  0.97638658  0.77860176    -0.01520
Br1342     Br  0.61164338  0.97260409  0.66941079    -0.01590
Br1343     Br  0.54734295  0.79681027  0.78482222    -0.01550
Br1344     Br  0.55180600  0.79848419  0.67283937    -0.01540
C1345       C  0.70883618  0.87188874  0.89098980    -0.02660
C1346       C  0.68470967  0.88590241  0.84890395     0.07020
C1347       C  0.71614716  0.91085723  0.81802863    -0.02780
C1348       C  0.76429996  0.91906927  0.82753615    -0.02780
C1349       C  0.78985083  0.89522078  0.86275989     0.07150
C1350       C  0.75852997  0.87738214  0.89758180    -0.02970
Br1351     Br  0.77965509  0.87834767  0.95977200    -0.01520
Br1352     Br  0.67520289  0.84233068  0.94094914    -0.01590
Br1353     Br  0.78646984  0.97856855  0.80712394    -0.01550
Br1354     Br  0.70386118  0.92674804  0.75602927    -0.01540
C1355       C  0.66063865  0.59092403  0.78311651    -0.02660
C1356       C  0.63472823  0.62746376  0.80806026     0.07020
C1357       C  0.59733793  0.64383708  0.77853156    -0.02780
C1358       C  0.59623911  0.63744646  0.72746459    -0.02780
C1359       C  0.63560698  0.61763346  0.70165863     0.07150
C1360       C  0.66498674  0.58945864  0.73201140    -0.02970
Br1361     Br  0.70429944  0.54011136  0.70569651    -0.01520
Br1362     Br  0.67063704  0.53152016  0.81502589    -0.01590
Br1363     Br  0.54977929  0.67355344  0.69369565    -0.01550
Br1364     Br  0.54912770  0.68075284  0.80565772    -0.01540
C1365       C  0.71145973  0.67157630  0.91862832    -0.02660
C1366       C  0.69133257  0.63452376  0.89075846     0.07020
C1367       C  0.72019104  0.59136798  0.89671315    -0.02780
C1368       C  0.77056660  0.59560152  0.89902308    -0.02780
C1369       C  0.79177952  0.64248583  0.89565308     0.07150
C1370       C  0.76078669  0.67833271  0.91767726    -0.02970
Br1371     Br  0.78100207  0.73264127  0.95390953    -0.01520
Br1372     Br  0.67308940  0.70378450  0.96605832    -0.01590
Br1373     Br  0.80744216  0.53678310  0.90480382    -0.01550
Br1374     Br  0.69574064  0.53236805  0.92323124    -0.01540
C1375       C  0.59409461  0.78720450  0.88395166    -0.02660
C1376       C  0.62569703  0.81278817  0.85325915     0.07020
C1377       C  0.65855070  0.78160980  0.83196859    -0.02780
C1378       C  0.66539529  0.73201333  0.84106846    -0.02780
C1379       C  0.63266558  0.70385205  0.86563720     0.07150
C1380       C  0.59663389  0.73408289  0.88889882    -0.02970
Br1381     Br  0.54951272  0.70525798  0.92797935    -0.01520
Br1382     Br  0.54350717  0.82184097  0.91570572    -0.01590
Br1383     Br  0.72465367  0.70692116  0.82069580    -0.01550
Br1384     Br  0.69026107  0.80610736  0.78180403    -0.01540
loop_ 
_geom_bond_atom_site_label_1 
_geom_bond_atom_site_label_2 
_geom_bond_distance 
_geom_bond_site_symmetry_2 
_ccdc_geom_bond_type 
N1            N2   1.334       .  A
N1            N7   1.320       .  A
N1         Mn549   2.295       .  S
N2            C9   1.369       .  A
N3            N5   1.316       .  A
N3            N4   1.331       .  A
N3        Mn1057   2.270   1_545  S
N4           C10   1.363       .  A
N5            N6   1.321       .  A
N5         Mn203   2.209       .  S
N6           C10   1.351       .  A
N7            N8   1.331       .  A
N7         Mn711   2.248       .  S
N8            C9   1.360       .  A
C9           C52   1.576       .  S
C10          C51   1.546       .  S
N11          N17   1.318       .  A
N11          N12   1.328       .  A
N11        Mn387   2.249   1_554  S
N12          C20   1.354       .  A
N13          N14   1.323       .  A
N13          N15   1.318       .  A
N13         Mn19   2.248       .  S
N14          C21   1.360       .  A
N15          N16   1.334       .  A
N15         Mn41   2.256   1_554  S
N16          C21   1.365       .  A
N17          N18   1.338       .  A
N17        Mn365   2.299   1_545  S
N18          C20   1.372       .  A
Mn19       N1041   2.270   1_455  S
Mn19        N699   2.248   1_455  S
Mn19        N363   2.299       .  S
Mn19       Cl389   2.578   1_455  S
C20          C49   1.583       .  S
C21          C48   1.558       .  S
N22          N23   1.337       .  A
N22          N28   1.317       .  A
N22         Mn30   2.247       .  S
N23          C31   1.367       .  A
N24          N26   1.319       .  A
N24          N25   1.326       .  A
N24        Mn388   2.268       .  S
N25          C32   1.363       .  A
N26          N27   1.331       .  A
N26        Mn376   2.245       .  S
N27          C32   1.360       .  A
N28          N29   1.320       .  A
N28         Mn42   2.264       .  S
N29          C31   1.363       .  A
Mn30        N520   2.295   1_545  S
Mn30        N178   2.209       .  S
Mn30        N372   2.245   1_545  S
Mn30       Cl908   2.576       .  S
C31          C50   1.589       .  S
C32          C53   1.567       .  S
N33          N34   1.322       .  A
N33          N39   1.318       .  A
N33        Mn214   2.261       .  S
N34          C44   1.360       .  A
N35          N36   1.336       .  A
N35          N37   1.321       .  A
N35        Mn734   2.295   1_455  S
N36          C45   1.371       .  A
N37          N38   1.324       .  A
N37        Mn560   2.240       .  S
N38          C45   1.355       .  A
N39          N40   1.333       .  A
N39       Mn1080   2.237   1_455  S
N40          C44   1.362       .  A
Mn41        N357   2.249   1_556  S
Mn41        N206   2.261       .  S
Mn41        N556   2.240       .  S
Mn41       Cl389   2.571   1_456  S
Mn42        N370   2.268   1_545  S
Mn42        N727   2.295       .  S
Mn42       N1077   2.237   1_545  S
Mn42       Cl908   2.577       .  S
Cl43       Mn365   2.578   1_645  S
Cl43       Mn895   2.576       .  S
Cl43       Mn387   2.571   1_654  S
Cl43       Mn907   2.577   1_554  S
C44          C47   1.566       .  S
C45          C46   1.574       .  S
C46         C145   1.674       .  S
C46         C155   1.666       .  S
C46         C168   1.652       .  S
C47         C128   1.677       .  S
C47         C135   1.689       .  S
C47         C165   1.651       .  S
C48         C105   1.625       .  S
C48         C118   1.673       .  S
C48         C125   1.682       .  S
C49          C95   1.653       .  S
C49         C108   1.656       .  S
C49         C148   1.659       .  S
C50          C75   1.655       .  S
C50          C85   1.648       .  S
C50         C158   1.650       .  S
C51          C68   1.630       .  S
C51          C78   1.657       .  S
C51          C98   1.681       .  S
C52          C58   1.710       .  S
C52          C65   1.656       .  S
C52         C115   1.705       .  S
C53          C55   1.677       .  S
C53          C88   1.642       .  S
C53         C138   1.670       .  S
C54          C55   1.418       .  A
C54          C59   1.448       .  A
C54         Br61   1.929       .  S
C55          C56   1.443       .  A
C56          C57   1.465       .  A
C56         Br63   1.951       .  S
C57          C58   1.454       .  A
C57         Br62   1.927       .  S
C58          C59   1.455       .  A
C59         Br60   1.908       .  S
C64          C65   1.451       .  A
C64          C69   1.490       .  A
C64         Br71   1.913       .  S
C65          C66   1.395       .  A
C66          C67   1.399       .  A
C66         Br73   1.779       .  S
C67          C68   1.380       .  A
C67         Br72   1.925       .  S
C68          C69   1.461       .  A
C69         Br70   1.905       .  S
C74          C75   1.421       .  A
C74          C79   1.410       .  A
C74         Br81   1.845       .  S
C75          C76   1.453       .  A
C76          C77   1.463       .  A
C76         Br83   1.907       .  S
C77          C78   1.436       .  A
C77         Br82   1.887       .  S
C78          C79   1.383       .  A
C79         Br80   1.826       .  S
C84          C85   1.449       .  A
C84          C89   1.469       .  A
C84         Br91   1.929       .  S
C85          C86   1.411       .  A
C86          C87   1.403       .  A
C86         Br93   1.864       .  S
C87          C88   1.405       .  A
C87         Br92   1.891       .  S
C88          C89   1.458       .  A
C89         Br90   1.930       .  S
C94          C95   1.458       .  A
C94          C99   1.474       .  A
C94        Br101   1.926       .  S
C95          C96   1.382       .  A
C96          C97   1.386       .  A
C96        Br103   1.900       .  S
C97          C98   1.414       .  A
C97        Br102   1.828       .  S
C98          C99   1.477       .  A
C99        Br100   1.939       .  S
C104        C105   1.447       .  A
C104        C109   1.476       .  A
C104       Br111   1.924       .  S
C105        C106   1.377       .  A
C106        C107   1.377       .  A
C106       Br113   1.830       .  S
C107        C108   1.405       .  A
C107       Br112   1.847       .  S
C108        C109   1.462       .  A
C109       Br110   1.917       .  S
C114        C115   1.431       .  A
C114        C119   1.445       .  A
C114       Br121   1.792       .  S
C115        C116   1.442       .  A
C116        C117   1.467       .  A
C116       Br123   1.923       .  S
C117        C118   1.447       .  A
C117       Br122   1.870       .  S
C118        C119   1.392       .  A
C119       Br120   1.890       .  S
C124        C125   1.455       .  A
C124        C129   1.468       .  A
C124       Br131   1.910       .  S
C125        C126   1.432       .  A
C126        C127   1.439       .  A
C126       Br133   1.919       .  S
C127        C128   1.427       .  A
C127       Br132   1.892       .  S
C128        C129   1.434       .  A
C129       Br130   1.923       .  S
C134        C135   1.439       .  A
C134        C139   1.454       .  A
C134       Br141   1.907       .  S
C135        C136   1.442       .  A
C136        C137   1.436       .  A
C136       Br143   1.852       .  S
C137        C138   1.406       .  A
C137       Br142   1.868       .  S
C138        C139   1.428       .  A
C139       Br140   1.871       .  S
C144        C145   1.415       .  A
C144        C149   1.453       .  A
C144       Br151   1.896       .  S
C145        C146   1.437       .  A
C146        C147   1.457       .  A
C146       Br153   1.853       .  S
C147        C148   1.433       .  A
C147       Br152   1.917       .  S
C148        C149   1.434       .  A
C149       Br150   1.887       .  S
C154        C155   1.421       .  A
C154        C159   1.434       .  A
C154       Br161   1.924       .  S
C155        C156   1.445       .  A
C156        C157   1.457       .  A
C156       Br163   1.942       .  S
C157        C158   1.444       .  A
C157       Br162   1.924       .  S
C158        C159   1.445       .  A
C159       Br160   1.909       .  S
C164        C165   1.451       .  A
C164        C169   1.471       .  A
C164       Br171   1.928       .  S
C165        C166   1.389       .  A
C166        C167   1.402       .  A
C166       Br173   1.825       .  S
C167        C168   1.416       .  A
C167       Br172   1.903       .  S
C168        C169   1.459       .  A
C169       Br170   1.931       .  S
N174        N175   1.334       .  A
N174        N180   1.320       .  A
N174       Mn376   2.295       .  S
N175        C182   1.369       .  A
N176        N178   1.316       .  A
N176        N177   1.331       .  A
N176      Mn1230   2.270   1_545  S
N177        C183   1.363       .  A
N178        N179   1.321       .  A
N179        C183   1.351       .  A
N180        N181   1.331       .  A
N180       Mn884   2.248       .  S
N181        C182   1.360       .  A
C182        C225   1.576       .  S
C183        C224   1.546       .  S
N184        N190   1.318       .  A
N184        N185   1.328       .  A
N184       Mn560   2.249       .  S
N185        C193   1.354       .  A
N186        N187   1.323       .  A
N186        N188   1.318       .  A
N186       Mn192   2.248       .  S
N187        C194   1.360       .  A
N188        N189   1.334       .  A
N188       Mn214   2.256       .  S
N189        C194   1.365       .  A
N190        N191   1.338       .  A
N190       Mn538   2.299   1_545  S
N191        C193   1.372       .  A
Mn192      N1214   2.270   1_455  S
Mn192       N872   2.248   1_455  S
Mn192       N536   2.299       .  S
Mn192      Cl562   2.578   1_455  S
C193        C222   1.583       .  S
C194        C221   1.558       .  S
N195        N196   1.337       .  A
N195        N201   1.317       .  A
N195       Mn203   2.247   1_556  S
N196        C204   1.367       .  A
N197        N199   1.319       .  A
N197        N198   1.326       .  A
N197       Mn561   2.268       .  S
N198        C205   1.363       .  A
N199        N200   1.331       .  A
N199       Mn549   2.245   1_556  S
N200        C205   1.360       .  A
N201        N202   1.320       .  A
N201       Mn215   2.264       .  S
N202        C204   1.363       .  A
Mn203       N347   2.295   1_545  S
Mn203       N545   2.245   1_544  S
Mn203      Cl735   2.576       .  S
C204        C223   1.589       .  S
C205        C226   1.567       .  S
N206        N207   1.322       .  A
N206        N212   1.318       .  A
N207        C217   1.360       .  A
N208        N209   1.336       .  A
N208        N210   1.321       .  A
N208       Mn907   2.295   1_455  S
N209        C218   1.371       .  A
N210        N211   1.324       .  A
N210       Mn387   2.240       .  S
N211        C218   1.355       .  A
N212        N213   1.333       .  A
N212      Mn1253   2.237   1_455  S
N213        C217   1.362       .  A
Mn214       N530   2.249       .  S
Mn214       N383   2.240       .  S
Mn214      Cl562   2.571   1_455  S
Mn215       N543   2.268   1_545  S
Mn215       N900   2.295       .  S
Mn215      N1250   2.237   1_545  S
Mn215      Cl735   2.577   1_556  S
Cl216      Mn538   2.578   1_645  S
Cl216      Mn722   2.576       .  S
Cl216      Mn560   2.571   1_655  S
Cl216      Mn734   2.577       .  S
C217        C220   1.566       .  S
C218        C219   1.574       .  S
C219        C318   1.674       .  S
C219        C328   1.666       .  S
C219        C341   1.652       .  S
C220        C301   1.677       .  S
C220        C308   1.689       .  S
C220        C338   1.651       .  S
C221        C278   1.625       .  S
C221        C291   1.673       .  S
C221        C298   1.682       .  S
C222        C268   1.653       .  S
C222        C281   1.656       .  S
C222        C321   1.659       .  S
C223        C248   1.655       .  S
C223        C258   1.648       .  S
C223        C331   1.650       .  S
C224        C241   1.630       .  S
C224        C251   1.657       .  S
C224        C271   1.681       .  S
C225        C231   1.710       .  S
C225        C238   1.656       .  S
C225        C288   1.705       .  S
C226        C228   1.677       .  S
C226        C261   1.642       .  S
C226        C311   1.670       .  S
C227        C228   1.418       .  A
C227        C232   1.448       .  A
C227       Br234   1.929       .  S
C228        C229   1.443       .  A
C229        C230   1.465       .  A
C229       Br236   1.951       .  S
C230        C231   1.454       .  A
C230       Br235   1.927       .  S
C231        C232   1.455       .  A
C232       Br233   1.908       .  S
C237        C238   1.451       .  A
C237        C242   1.490       .  A
C237       Br244   1.913       .  S
C238        C239   1.395       .  A
C239        C240   1.399       .  A
C239       Br246   1.779       .  S
C240        C241   1.380       .  A
C240       Br245   1.925       .  S
C241        C242   1.461       .  A
C242       Br243   1.905       .  S
C247        C248   1.421       .  A
C247        C252   1.410       .  A
C247       Br254   1.845       .  S
C248        C249   1.453       .  A
C249        C250   1.463       .  A
C249       Br256   1.907       .  S
C250        C251   1.436       .  A
C250       Br255   1.887       .  S
C251        C252   1.383       .  A
C252       Br253   1.826       .  S
C257        C258   1.449       .  A
C257        C262   1.469       .  A
C257       Br264   1.929       .  S
C258        C259   1.411       .  A
C259        C260   1.403       .  A
C259       Br266   1.864       .  S
C260        C261   1.405       .  A
C260       Br265   1.891       .  S
C261        C262   1.458       .  A
C262       Br263   1.930       .  S
C267        C268   1.458       .  A
C267        C272   1.474       .  A
C267       Br274   1.926       .  S
C268        C269   1.382       .  A
C269        C270   1.386       .  A
C269       Br276   1.900       .  S
C270        C271   1.414       .  A
C270       Br275   1.828       .  S
C271        C272   1.477       .  A
C272       Br273   1.939       .  S
C277        C278   1.447       .  A
C277        C282   1.476       .  A
C277       Br284   1.924       .  S
C278        C279   1.377       .  A
C279        C280   1.377       .  A
C279       Br286   1.830       .  S
C280        C281   1.405       .  A
C280       Br285   1.847       .  S
C281        C282   1.462       .  A
C282       Br283   1.917       .  S
C287        C288   1.431       .  A
C287        C292   1.445       .  A
C287       Br294   1.792       .  S
C288        C289   1.442       .  A
C289        C290   1.467       .  A
C289       Br296   1.923       .  S
C290        C291   1.447       .  A
C290       Br295   1.870       .  S
C291        C292   1.392       .  A
C292       Br293   1.890       .  S
C297        C298   1.455       .  A
C297        C302   1.468       .  A
C297       Br304   1.910       .  S
C298        C299   1.432       .  A
C299        C300   1.439       .  A
C299       Br306   1.919       .  S
C300        C301   1.427       .  A
C300       Br305   1.892       .  S
C301        C302   1.434       .  A
C302       Br303   1.923       .  S
C307        C308   1.439       .  A
C307        C312   1.454       .  A
C307       Br314   1.907       .  S
C308        C309   1.442       .  A
C309        C310   1.436       .  A
C309       Br316   1.852       .  S
C310        C311   1.406       .  A
C310       Br315   1.868       .  S
C311        C312   1.428       .  A
C312       Br313   1.871       .  S
C317        C318   1.415       .  A
C317        C322   1.453       .  A
C317       Br324   1.896       .  S
C318        C319   1.437       .  A
C319        C320   1.457       .  A
C319       Br326   1.853       .  S
C320        C321   1.433       .  A
C320       Br325   1.917       .  S
C321        C322   1.434       .  A
C322       Br323   1.887       .  S
C327        C328   1.421       .  A
C327        C332   1.434       .  A
C327       Br334   1.924       .  S
C328        C329   1.445       .  A
C329        C330   1.457       .  A
C329       Br336   1.942       .  S
C330        C331   1.444       .  A
C330       Br335   1.924       .  S
C331        C332   1.445       .  A
C332       Br333   1.909       .  S
C337        C338   1.451       .  A
C337        C342   1.471       .  A
C337       Br344   1.928       .  S
C338        C339   1.389       .  A
C339        C340   1.402       .  A
C339       Br346   1.825       .  S
C340        C341   1.416       .  A
C340       Br345   1.903       .  S
C341        C342   1.459       .  A
C342       Br343   1.931       .  S
N347        N348   1.334       .  A
N347        N353   1.320       .  A
N348        C355   1.369       .  A
N349        N351   1.316       .  A
N349        N350   1.331       .  A
N349       Mn711   2.270       .  S
N350        C356   1.363       .  A
N351        N352   1.321       .  A
N351       Mn549   2.209       .  S
N352        C356   1.351       .  A
N353        N354   1.331       .  A
N353      Mn1057   2.248       .  S
N354        C355   1.360       .  A
C355        C398   1.576       .  S
C356        C397   1.546       .  S
N357        N363   1.318       .  A
N357        N358   1.328       .  A
N358        C366   1.354       .  A
N359        N360   1.323       .  A
N359        N361   1.318       .  A
N359       Mn365   2.248       .  S
N360        C367   1.360       .  A
N361        N362   1.334       .  A
N361       Mn387   2.256   1_564  S
N362        C367   1.365       .  A
N363        N364   1.338       .  A
N364        C366   1.372       .  A
Mn365       N695   2.270   1_465  S
Mn365      N1045   2.248   1_455  S
C366        C395   1.583       .  S
C367        C394   1.558       .  S
N368        N369   1.337       .  A
N368        N374   1.317       .  A
N368       Mn376   2.247       .  S
N369        C377   1.367       .  A
N370        N372   1.319       .  A
N370        N371   1.326       .  A
N371        C378   1.363       .  A
N372        N373   1.331       .  A
N373        C378   1.360       .  A
N374        N375   1.320       .  A
N374       Mn388   2.264       .  S
N375        C377   1.363       .  A
Mn376       N524   2.209       .  S
Mn376     Cl1254   2.576       .  S
C377        C396   1.589       .  S
C378        C399   1.567       .  S
N379        N380   1.322       .  A
N379        N385   1.318       .  A
N379       Mn560   2.261   1_565  S
N380        C390   1.360       .  A
N381        N382   1.336       .  A
N381        N383   1.321       .  A
N381      Mn1080   2.295   1_455  S
N382        C391   1.371       .  A
N383        N384   1.324       .  A
N384        C391   1.355       .  A
N385        N386   1.333       .  A
N385       Mn734   2.237   1_465  S
N386        C390   1.362       .  A
Mn387       N552   2.261   1_545  S
Mn388      N1073   2.295       .  S
Mn388       N731   2.237       .  S
Mn388     Cl1254   2.577       .  S
Cl389     Mn1241   2.576       .  S
Cl389     Mn1253   2.577   1_554  S
C390        C393   1.566       .  S
C391        C392   1.574       .  S
C392        C491   1.674       .  S
C392        C501   1.666       .  S
C392        C514   1.652       .  S
C393        C474   1.677       .  S
C393        C481   1.689       .  S
C393        C511   1.651       .  S
C394        C451   1.625       .  S
C394        C464   1.673       .  S
C394        C471   1.682       .  S
C395        C441   1.653       .  S
C395        C454   1.656       .  S
C395        C494   1.659       .  S
C396        C421   1.655       .  S
C396        C431   1.648       .  S
C396        C504   1.650       .  S
C397        C414   1.630       .  S
C397        C424   1.657       .  S
C397        C444   1.681       .  S
C398        C404   1.710       .  S
C398        C411   1.656       .  S
C398        C461   1.705       .  S
C399        C401   1.677       .  S
C399        C434   1.642       .  S
C399        C484   1.670       .  S
C400        C401   1.418       .  A
C400        C405   1.448       .  A
C400       Br407   1.929       .  S
C401        C402   1.443       .  A
C402        C403   1.465       .  A
C402       Br409   1.951       .  S
C403        C404   1.454       .  A
C403       Br408   1.927       .  S
C404        C405   1.455       .  A
C405       Br406   1.908       .  S
C410        C411   1.451       .  A
C410        C415   1.490       .  A
C410       Br417   1.913       .  S
C411        C412   1.395       .  A
C412        C413   1.399       .  A
C412       Br419   1.779       .  S
C413        C414   1.380       .  A
C413       Br418   1.925       .  S
C414        C415   1.461       .  A
C415       Br416   1.905       .  S
C420        C421   1.421       .  A
C420        C425   1.410       .  A
C420       Br427   1.845       .  S
C421        C422   1.453       .  A
C422        C423   1.463       .  A
C422       Br429   1.907       .  S
C423        C424   1.436       .  A
C423       Br428   1.887       .  S
C424        C425   1.383       .  A
C425       Br426   1.826       .  S
C430        C431   1.449       .  A
C430        C435   1.469       .  A
C430       Br437   1.929       .  S
C431        C432   1.411       .  A
C432        C433   1.403       .  A
C432       Br439   1.864       .  S
C433        C434   1.405       .  A
C433       Br438   1.891       .  S
C434        C435   1.458       .  A
C435       Br436   1.930       .  S
C440        C441   1.458       .  A
C440        C445   1.474       .  A
C440       Br447   1.926       .  S
C441        C442   1.382       .  A
C442        C443   1.386       .  A
C442       Br449   1.900       .  S
C443        C444   1.414       .  A
C443       Br448   1.828       .  S
C444        C445   1.477       .  A
C445       Br446   1.939       .  S
C450        C451   1.447       .  A
C450        C455   1.476       .  A
C450       Br457   1.924       .  S
C451        C452   1.377       .  A
C452        C453   1.377       .  A
C452       Br459   1.830       .  S
C453        C454   1.405       .  A
C453       Br458   1.847       .  S
C454        C455   1.462       .  A
C455       Br456   1.917       .  S
C460        C461   1.431       .  A
C460        C465   1.445       .  A
C460       Br467   1.792       .  S
C461        C462   1.442       .  A
C462        C463   1.467       .  A
C462       Br469   1.923       .  S
C463        C464   1.447       .  A
C463       Br468   1.870       .  S
C464        C465   1.392       .  A
C465       Br466   1.890       .  S
C470        C471   1.455       .  A
C470        C475   1.468       .  A
C470       Br477   1.910       .  S
C471        C472   1.432       .  A
C472        C473   1.439       .  A
C472       Br479   1.919       .  S
C473        C474   1.427       .  A
C473       Br478   1.892       .  S
C474        C475   1.434       .  A
C475       Br476   1.923       .  S
C480        C481   1.439       .  A
C480        C485   1.454       .  A
C480       Br487   1.907       .  S
C481        C482   1.442       .  A
C482        C483   1.436       .  A
C482       Br489   1.852       .  S
C483        C484   1.406       .  A
C483       Br488   1.868       .  S
C484        C485   1.428       .  A
C485       Br486   1.871       .  S
C490        C491   1.415       .  A
C490        C495   1.453       .  A
C490       Br497   1.896       .  S
C491        C492   1.437       .  A
C492        C493   1.457       .  A
C492       Br499   1.853       .  S
C493        C494   1.433       .  A
C493       Br498   1.917       .  S
C494        C495   1.434       .  A
C495       Br496   1.887       .  S
C500        C501   1.421       .  A
C500        C505   1.434       .  A
C500       Br507   1.924       .  S
C501        C502   1.445       .  A
C502        C503   1.457       .  A
C502       Br509   1.942       .  S
C503        C504   1.444       .  A
C503       Br508   1.924       .  S
C504        C505   1.445       .  A
C505       Br506   1.909       .  S
C510        C511   1.451       .  A
C510        C515   1.471       .  A
C510       Br517   1.928       .  S
C511        C512   1.389       .  A
C512        C513   1.402       .  A
C512       Br519   1.825       .  S
C513        C514   1.416       .  A
C513       Br518   1.903       .  S
C514        C515   1.459       .  A
C515       Br516   1.931       .  S
N520        N521   1.334       .  A
N520        N526   1.320       .  A
N521        C528   1.369       .  A
N522        N524   1.316       .  A
N522        N523   1.331       .  A
N522       Mn884   2.270       .  S
N523        C529   1.363       .  A
N524        N525   1.321       .  A
N525        C529   1.351       .  A
N526        N527   1.331       .  A
N526      Mn1230   2.248       .  S
N527        C528   1.360       .  A
C528        C571   1.576       .  S
C529        C570   1.546       .  S
N530        N536   1.318       .  A
N530        N531   1.328       .  A
N531        C539   1.354       .  A
N532        N533   1.323       .  A
N532        N534   1.318       .  A
N532       Mn538   2.248       .  S
N533        C540   1.360       .  A
N534        N535   1.334       .  A
N534       Mn560   2.256   1_565  S
N535        C540   1.365       .  A
N536        N537   1.338       .  A
N537        C539   1.372       .  A
Mn538       N868   2.270   1_465  S
Mn538      N1218   2.248   1_455  S
C539        C568   1.583       .  S
C540        C567   1.558       .  S
N541        N542   1.337       .  A
N541        N547   1.317       .  A
N541       Mn549   2.247   1_556  S
N542        C550   1.367       .  A
N543        N545   1.319       .  A
N543        N544   1.326       .  A
N544        C551   1.363       .  A
N545        N546   1.331       .  A
N546        C551   1.360       .  A
N547        N548   1.320       .  A
N547       Mn561   2.264       .  S
N548        C550   1.363       .  A
Mn549     Cl1081   2.576       .  S
C550        C569   1.589       .  S
C551        C572   1.567       .  S
N552        N553   1.322       .  A
N552        N558   1.318       .  A
N553        C563   1.360       .  A
N554        N555   1.336       .  A
N554        N556   1.321       .  A
N554      Mn1253   2.295   1_455  S
N555        C564   1.371       .  A
N556        N557   1.324       .  A
N557        C564   1.355       .  A
N558        N559   1.333       .  A
N558       Mn907   2.237   1_465  S
N559        C563   1.362       .  A
Mn561      N1246   2.295       .  S
Mn561       N904   2.237       .  S
Mn561     Cl1081   2.577   1_556  S
Cl562     Mn1068   2.576       .  S
Cl562     Mn1080   2.577       .  S
C563        C566   1.566       .  S
C564        C565   1.574       .  S
C565        C664   1.674       .  S
C565        C674   1.666       .  S
C565        C687   1.652       .  S
C566        C647   1.677       .  S
C566        C654   1.689       .  S
C566        C684   1.651       .  S
C567        C624   1.625       .  S
C567        C637   1.673       .  S
C567        C644   1.682       .  S
C568        C614   1.653       .  S
C568        C627   1.656       .  S
C568        C667   1.659       .  S
C569        C594   1.655       .  S
C569        C604   1.648       .  S
C569        C677   1.650       .  S
C570        C587   1.630       .  S
C570        C597   1.657       .  S
C570        C617   1.681       .  S
C571        C577   1.710       .  S
C571        C584   1.656       .  S
C571        C634   1.705       .  S
C572        C574   1.677       .  S
C572        C607   1.642       .  S
C572        C657   1.670       .  S
C573        C574   1.418       .  A
C573        C578   1.448       .  A
C573       Br580   1.929       .  S
C574        C575   1.443       .  A
C575        C576   1.465       .  A
C575       Br582   1.951       .  S
C576        C577   1.454       .  A
C576       Br581   1.927       .  S
C577        C578   1.455       .  A
C578       Br579   1.908       .  S
C583        C584   1.451       .  A
C583        C588   1.490       .  A
C583       Br590   1.913       .  S
C584        C585   1.395       .  A
C585        C586   1.399       .  A
C585       Br592   1.779       .  S
C586        C587   1.380       .  A
C586       Br591   1.925       .  S
C587        C588   1.461       .  A
C588       Br589   1.905       .  S
C593        C594   1.421       .  A
C593        C598   1.410       .  A
C593       Br600   1.845       .  S
C594        C595   1.453       .  A
C595        C596   1.463       .  A
C595       Br602   1.907       .  S
C596        C597   1.436       .  A
C596       Br601   1.887       .  S
C597        C598   1.383       .  A
C598       Br599   1.826       .  S
C603        C604   1.449       .  A
C603        C608   1.469       .  A
C603       Br610   1.929       .  S
C604        C605   1.411       .  A
C605        C606   1.403       .  A
C605       Br612   1.864       .  S
C606        C607   1.405       .  A
C606       Br611   1.891       .  S
C607        C608   1.458       .  A
C608       Br609   1.930       .  S
C613        C614   1.458       .  A
C613        C618   1.474       .  A
C613       Br620   1.926       .  S
C614        C615   1.382       .  A
C615        C616   1.386       .  A
C615       Br622   1.900       .  S
C616        C617   1.414       .  A
C616       Br621   1.828       .  S
C617        C618   1.477       .  A
C618       Br619   1.939       .  S
C623        C624   1.447       .  A
C623        C628   1.476       .  A
C623       Br630   1.924       .  S
C624        C625   1.377       .  A
C625        C626   1.377       .  A
C625       Br632   1.830       .  S
C626        C627   1.405       .  A
C626       Br631   1.847       .  S
C627        C628   1.462       .  A
C628       Br629   1.917       .  S
C633        C634   1.431       .  A
C633        C638   1.445       .  A
C633       Br640   1.792       .  S
C634        C635   1.442       .  A
C635        C636   1.467       .  A
C635       Br642   1.923       .  S
C636        C637   1.447       .  A
C636       Br641   1.870       .  S
C637        C638   1.392       .  A
C638       Br639   1.890       .  S
C643        C644   1.455       .  A
C643        C648   1.468       .  A
C643       Br650   1.910       .  S
C644        C645   1.432       .  A
C645        C646   1.439       .  A
C645       Br652   1.919       .  S
C646        C647   1.427       .  A
C646       Br651   1.892       .  S
C647        C648   1.434       .  A
C648       Br649   1.923       .  S
C653        C654   1.439       .  A
C653        C658   1.454       .  A
C653       Br660   1.907       .  S
C654        C655   1.442       .  A
C655        C656   1.436       .  A
C655       Br662   1.852       .  S
C656        C657   1.406       .  A
C656       Br661   1.868       .  S
C657        C658   1.428       .  A
C658       Br659   1.871       .  S
C663        C664   1.415       .  A
C663        C668   1.453       .  A
C663       Br670   1.896       .  S
C664        C665   1.437       .  A
C665        C666   1.457       .  A
C665       Br672   1.853       .  S
C666        C667   1.433       .  A
C666       Br671   1.917       .  S
C667        C668   1.434       .  A
C668       Br669   1.887       .  S
C673        C674   1.421       .  A
C673        C678   1.434       .  A
C673       Br680   1.924       .  S
C674        C675   1.445       .  A
C675        C676   1.457       .  A
C675       Br682   1.942       .  S
C676        C677   1.444       .  A
C676       Br681   1.924       .  S
C677        C678   1.445       .  A
C678       Br679   1.909       .  S
C683        C684   1.451       .  A
C683        C688   1.471       .  A
C683       Br690   1.928       .  S
C684        C685   1.389       .  A
C685        C686   1.402       .  A
C685       Br692   1.825       .  S
C686        C687   1.416       .  A
C686       Br691   1.903       .  S
C687        C688   1.459       .  A
C688       Br689   1.931       .  S
N693        N694   1.334       .  A
N693        N699   1.320       .  A
N693      Mn1241   2.295       .  S
N694        C701   1.369       .  A
N695        N697   1.316       .  A
N695        N696   1.331       .  A
N696        C702   1.363       .  A
N697        N698   1.321       .  A
N697       Mn895   2.209       .  S
N698        C702   1.351       .  A
N699        N700   1.331       .  A
N700        C701   1.360       .  A
C701        C744   1.576       .  S
C702        C743   1.546       .  S
N703        N709   1.318       .  A
N703        N704   1.328       .  A
N703      Mn1079   2.249   1_554  S
N704        C712   1.354       .  A
N705        N706   1.323       .  A
N705        N707   1.318       .  A
N705       Mn711   2.248       .  S
N706        C713   1.360       .  A
N707        N708   1.334       .  A
N707       Mn733   2.256   1_554  S
N708        C713   1.365       .  A
N709        N710   1.338       .  A
N709      Mn1057   2.299   1_545  S
N710        C712   1.372       .  A
Mn711      N1055   2.299       .  S
Mn711     Cl1081   2.578       .  S
C712        C741   1.583       .  S
C713        C740   1.558       .  S
N714        N715   1.337       .  A
N714        N720   1.317       .  A
N714       Mn722   2.247       .  S
N715        C723   1.367       .  A
N716        N718   1.319       .  A
N716        N717   1.326       .  A
N716      Mn1080   2.268       .  S
N717        C724   1.363       .  A
N718        N719   1.331       .  A
N718      Mn1068   2.245       .  S
N719        C724   1.360       .  A
N720        N721   1.320       .  A
N720       Mn734   2.264       .  S
N721        C723   1.363       .  A
Mn722      N1212   2.295   1_545  S
Mn722       N870   2.209       .  S
Mn722      N1064   2.245   1_545  S
C723        C742   1.589       .  S
C724        C745   1.567       .  S
N725        N726   1.322       .  A
N725        N731   1.318       .  A
N725       Mn906   2.261       .  S
N726        C736   1.360       .  A
N727        N728   1.336       .  A
N727        N729   1.321       .  A
N728        C737   1.371       .  A
N729        N730   1.324       .  A
N729      Mn1252   2.240       .  S
N730        C737   1.355       .  A
N731        N732   1.333       .  A
N732        C736   1.362       .  A
Mn733      N1049   2.249   1_556  S
Mn733       N898   2.261       .  S
Mn733      N1248   2.240       .  S
Mn733     Cl1081   2.571   1_556  S
Mn734      N1062   2.268   1_545  S
Cl735     Mn1057   2.578   1_545  S
Cl735     Mn1079   2.571   1_554  S
C736        C739   1.566       .  S
C737        C738   1.574       .  S
C738        C837   1.674       .  S
C738        C847   1.666       .  S
C738        C860   1.652       .  S
C739        C820   1.677       .  S
C739        C827   1.689       .  S
C739        C857   1.651       .  S
C740        C797   1.625       .  S
C740        C810   1.673       .  S
C740        C817   1.682       .  S
C741        C787   1.653       .  S
C741        C800   1.656       .  S
C741        C840   1.659       .  S
C742        C767   1.655       .  S
C742        C777   1.648       .  S
C742        C850   1.650       .  S
C743        C760   1.630       .  S
C743        C770   1.657       .  S
C743        C790   1.681       .  S
C744        C750   1.710       .  S
C744        C757   1.656       .  S
C744        C807   1.705       .  S
C745        C747   1.677       .  S
C745        C780   1.642       .  S
C745        C830   1.670       .  S
C746        C747   1.418       .  A
C746        C751   1.448       .  A
C746       Br753   1.929       .  S
C747        C748   1.443       .  A
C748        C749   1.465       .  A
C748       Br755   1.951       .  S
C749        C750   1.454       .  A
C749       Br754   1.927       .  S
C750        C751   1.455       .  A
C751       Br752   1.908       .  S
C756        C757   1.451       .  A
C756        C761   1.490       .  A
C756       Br763   1.913       .  S
C757        C758   1.395       .  A
C758        C759   1.399       .  A
C758       Br765   1.779       .  S
C759        C760   1.380       .  A
C759       Br764   1.925       .  S
C760        C761   1.461       .  A
C761       Br762   1.905       .  S
C766        C767   1.421       .  A
C766        C771   1.410       .  A
C766       Br773   1.845       .  S
C767        C768   1.453       .  A
C768        C769   1.463       .  A
C768       Br775   1.907       .  S
C769        C770   1.436       .  A
C769       Br774   1.887       .  S
C770        C771   1.383       .  A
C771       Br772   1.826       .  S
C776        C777   1.449       .  A
C776        C781   1.469       .  A
C776       Br783   1.929       .  S
C777        C778   1.411       .  A
C778        C779   1.403       .  A
C778       Br785   1.864       .  S
C779        C780   1.405       .  A
C779       Br784   1.891       .  S
C780        C781   1.458       .  A
C781       Br782   1.930       .  S
C786        C787   1.458       .  A
C786        C791   1.474       .  A
C786       Br793   1.926       .  S
C787        C788   1.382       .  A
C788        C789   1.386       .  A
C788       Br795   1.900       .  S
C789        C790   1.414       .  A
C789       Br794   1.828       .  S
C790        C791   1.477       .  A
C791       Br792   1.939       .  S
C796        C797   1.447       .  A
C796        C801   1.476       .  A
C796       Br803   1.924       .  S
C797        C798   1.377       .  A
C798        C799   1.377       .  A
C798       Br805   1.830       .  S
C799        C800   1.405       .  A
C799       Br804   1.847       .  S
C800        C801   1.462       .  A
C801       Br802   1.917       .  S
C806        C807   1.431       .  A
C806        C811   1.445       .  A
C806       Br813   1.792       .  S
C807        C808   1.442       .  A
C808        C809   1.467       .  A
C808       Br815   1.923       .  S
C809        C810   1.447       .  A
C809       Br814   1.870       .  S
C810        C811   1.392       .  A
C811       Br812   1.890       .  S
C816        C817   1.455       .  A
C816        C821   1.468       .  A
C816       Br823   1.910       .  S
C817        C818   1.432       .  A
C818        C819   1.439       .  A
C818       Br825   1.919       .  S
C819        C820   1.427       .  A
C819       Br824   1.892       .  S
C820        C821   1.434       .  A
C821       Br822   1.923       .  S
C826        C827   1.439       .  A
C826        C831   1.454       .  A
C826       Br833   1.907       .  S
C827        C828   1.442       .  A
C828        C829   1.436       .  A
C828       Br835   1.852       .  S
C829        C830   1.406       .  A
C829       Br834   1.868       .  S
C830        C831   1.428       .  A
C831       Br832   1.871       .  S
C836        C837   1.415       .  A
C836        C841   1.453       .  A
C836       Br843   1.896       .  S
C837        C838   1.437       .  A
C838        C839   1.457       .  A
C838       Br845   1.853       .  S
C839        C840   1.433       .  A
C839       Br844   1.917       .  S
C840        C841   1.434       .  A
C841       Br842   1.887       .  S
C846        C847   1.421       .  A
C846        C851   1.434       .  A
C846       Br853   1.924       .  S
C847        C848   1.445       .  A
C848        C849   1.457       .  A
C848       Br855   1.942       .  S
C849        C850   1.444       .  A
C849       Br854   1.924       .  S
C850        C851   1.445       .  A
C851       Br852   1.909       .  S
C856        C857   1.451       .  A
C856        C861   1.471       .  A
C856       Br863   1.928       .  S
C857        C858   1.389       .  A
C858        C859   1.402       .  A
C858       Br865   1.825       .  S
C859        C860   1.416       .  A
C859       Br864   1.903       .  S
C860        C861   1.459       .  A
C861       Br862   1.931       .  S
N866        N867   1.334       .  A
N866        N872   1.320       .  A
N866      Mn1068   2.295       .  S
N867        C874   1.369       .  A
N868        N870   1.316       .  A
N868        N869   1.331       .  A
N869        C875   1.363       .  A
N870        N871   1.321       .  A
N871        C875   1.351       .  A
N872        N873   1.331       .  A
N873        C874   1.360       .  A
C874        C917   1.576       .  S
C875        C916   1.546       .  S
N876        N882   1.318       .  A
N876        N877   1.328       .  A
N876      Mn1252   2.249       .  S
N877        C885   1.354       .  A
N878        N879   1.323       .  A
N878        N880   1.318       .  A
N878       Mn884   2.248       .  S
N879        C886   1.360       .  A
N880        N881   1.334       .  A
N880       Mn906   2.256       .  S
N881        C886   1.365       .  A
N882        N883   1.338       .  A
N882      Mn1230   2.299   1_545  S
N883        C885   1.372       .  A
Mn884      N1228   2.299       .  S
Mn884     Cl1254   2.578       .  S
C885        C914   1.583       .  S
C886        C913   1.558       .  S
N887        N888   1.337       .  A
N887        N893   1.317       .  A
N887       Mn895   2.247   1_556  S
N888        C896   1.367       .  A
N889        N891   1.319       .  A
N889        N890   1.326       .  A
N889      Mn1253   2.268       .  S
N890        C897   1.363       .  A
N891        N892   1.331       .  A
N891      Mn1241   2.245   1_556  S
N892        C897   1.360       .  A
N893        N894   1.320       .  A
N893       Mn907   2.264       .  S
N894        C896   1.363       .  A
Mn895      N1039   2.295   1_545  S
Mn895      N1237   2.245   1_544  S
C896        C915   1.589       .  S
C897        C918   1.567       .  S
N898        N899   1.322       .  A
N898        N904   1.318       .  A
N899        C909   1.360       .  A
N900        N901   1.336       .  A
N900        N902   1.321       .  A
N901        C910   1.371       .  A
N902        N903   1.324       .  A
N902      Mn1079   2.240       .  S
N903        C910   1.355       .  A
N904        N905   1.333       .  A
N905        C909   1.362       .  A
Mn906      N1222   2.249       .  S
Mn906      N1075   2.240       .  S
Mn906     Cl1254   2.571       .  S
Mn907      N1235   2.268   1_545  S
Cl908     Mn1230   2.578   1_545  S
Cl908     Mn1252   2.571       .  S
C909        C912   1.566       .  S
C910        C911   1.574       .  S
C911       C1010   1.674       .  S
C911       C1020   1.666       .  S
C911       C1033   1.652       .  S
C912        C993   1.677       .  S
C912       C1000   1.689       .  S
C912       C1030   1.651       .  S
C913        C970   1.625       .  S
C913        C983   1.673       .  S
C913        C990   1.682       .  S
C914        C960   1.653       .  S
C914        C973   1.656       .  S
C914       C1013   1.659       .  S
C915        C940   1.655       .  S
C915        C950   1.648       .  S
C915       C1023   1.650       .  S
C916        C933   1.630       .  S
C916        C943   1.657       .  S
C916        C963   1.681       .  S
C917        C923   1.710       .  S
C917        C930   1.656       .  S
C917        C980   1.705       .  S
C918        C920   1.677       .  S
C918        C953   1.642       .  S
C918       C1003   1.670       .  S
C919        C920   1.418       .  A
C919        C924   1.448       .  A
C919       Br926   1.929       .  S
C920        C921   1.443       .  A
C921        C922   1.465       .  A
C921       Br928   1.951       .  S
C922        C923   1.454       .  A
C922       Br927   1.927       .  S
C923        C924   1.455       .  A
C924       Br925   1.908       .  S
C929        C930   1.451       .  A
C929        C934   1.490       .  A
C929       Br936   1.913       .  S
C930        C931   1.395       .  A
C931        C932   1.399       .  A
C931       Br938   1.779       .  S
C932        C933   1.380       .  A
C932       Br937   1.925       .  S
C933        C934   1.461       .  A
C934       Br935   1.905       .  S
C939        C940   1.421       .  A
C939        C944   1.410       .  A
C939       Br946   1.845       .  S
C940        C941   1.453       .  A
C941        C942   1.463       .  A
C941       Br948   1.907       .  S
C942        C943   1.436       .  A
C942       Br947   1.887       .  S
C943        C944   1.383       .  A
C944       Br945   1.826       .  S
C949        C950   1.449       .  A
C949        C954   1.469       .  A
C949       Br956   1.929       .  S
C950        C951   1.411       .  A
C951        C952   1.403       .  A
C951       Br958   1.864       .  S
C952        C953   1.405       .  A
C952       Br957   1.891       .  S
C953        C954   1.458       .  A
C954       Br955   1.930       .  S
C959        C960   1.458       .  A
C959        C964   1.474       .  A
C959       Br966   1.926       .  S
C960        C961   1.382       .  A
C961        C962   1.386       .  A
C961       Br968   1.900       .  S
C962        C963   1.414       .  A
C962       Br967   1.828       .  S
C963        C964   1.477       .  A
C964       Br965   1.939       .  S
C969        C970   1.447       .  A
C969        C974   1.476       .  A
C969       Br976   1.924       .  S
C970        C971   1.377       .  A
C971        C972   1.377       .  A
C971       Br978   1.830       .  S
C972        C973   1.405       .  A
C972       Br977   1.847       .  S
C973        C974   1.462       .  A
C974       Br975   1.917       .  S
C979        C980   1.431       .  A
C979        C984   1.445       .  A
C979       Br986   1.792       .  S
C980        C981   1.442       .  A
C981        C982   1.467       .  A
C981       Br988   1.923       .  S
C982        C983   1.447       .  A
C982       Br987   1.870       .  S
C983        C984   1.392       .  A
C984       Br985   1.890       .  S
C989        C990   1.455       .  A
C989        C994   1.468       .  A
C989       Br996   1.910       .  S
C990        C991   1.432       .  A
C991        C992   1.439       .  A
C991       Br998   1.919       .  S
C992        C993   1.427       .  A
C992       Br997   1.892       .  S
C993        C994   1.434       .  A
C994       Br995   1.923       .  S
C999       C1000   1.439       .  A
C999       C1004   1.454       .  A
C999      Br1006   1.907       .  S
C1000      C1001   1.442       .  A
C1001      C1002   1.436       .  A
C1001     Br1008   1.852       .  S
C1002      C1003   1.406       .  A
C1002     Br1007   1.868       .  S
C1003      C1004   1.428       .  A
C1004     Br1005   1.871       .  S
C1009      C1010   1.415       .  A
C1009      C1014   1.453       .  A
C1009     Br1016   1.896       .  S
C1010      C1011   1.437       .  A
C1011      C1012   1.457       .  A
C1011     Br1018   1.853       .  S
C1012      C1013   1.433       .  A
C1012     Br1017   1.917       .  S
C1013      C1014   1.434       .  A
C1014     Br1015   1.887       .  S
C1019      C1020   1.421       .  A
C1019      C1024   1.434       .  A
C1019     Br1026   1.924       .  S
C1020      C1021   1.445       .  A
C1021      C1022   1.457       .  A
C1021     Br1028   1.942       .  S
C1022      C1023   1.444       .  A
C1022     Br1027   1.924       .  S
C1023      C1024   1.445       .  A
C1024     Br1025   1.909       .  S
C1029      C1030   1.451       .  A
C1029      C1034   1.471       .  A
C1029     Br1036   1.928       .  S
C1030      C1031   1.389       .  A
C1031      C1032   1.402       .  A
C1031     Br1038   1.825       .  S
C1032      C1033   1.416       .  A
C1032     Br1037   1.903       .  S
C1033      C1034   1.459       .  A
C1034     Br1035   1.931       .  S
N1039      N1040   1.334       .  A
N1039      N1045   1.320       .  A
N1040      C1047   1.369       .  A
N1041      N1043   1.316       .  A
N1041      N1042   1.331       .  A
N1042      C1048   1.363       .  A
N1043      N1044   1.321       .  A
N1043     Mn1241   2.209       .  S
N1044      C1048   1.351       .  A
N1045      N1046   1.331       .  A
N1046      C1047   1.360       .  A
C1047      C1090   1.576       .  S
C1048      C1089   1.546       .  S
N1049      N1055   1.318       .  A
N1049      N1050   1.328       .  A
N1050      C1058   1.354       .  A
N1051      N1052   1.323       .  A
N1051      N1053   1.318       .  A
N1051     Mn1057   2.248       .  S
N1052      C1059   1.360       .  A
N1053      N1054   1.334       .  A
N1053     Mn1079   2.256   1_564  S
N1054      C1059   1.365       .  A
N1055      N1056   1.338       .  A
N1056      C1058   1.372       .  A
C1058      C1087   1.583       .  S
C1059      C1086   1.558       .  S
N1060      N1061   1.337       .  A
N1060      N1066   1.317       .  A
N1060     Mn1068   2.247       .  S
N1061      C1069   1.367       .  A
N1062      N1064   1.319       .  A
N1062      N1063   1.326       .  A
N1063      C1070   1.363       .  A
N1064      N1065   1.331       .  A
N1065      C1070   1.360       .  A
N1066      N1067   1.320       .  A
N1066     Mn1080   2.264       .  S
N1067      C1069   1.363       .  A
Mn1068     N1216   2.209       .  S
C1069      C1088   1.589       .  S
C1070      C1091   1.567       .  S
N1071      N1072   1.322       .  A
N1071      N1077   1.318       .  A
N1071     Mn1252   2.261   1_565  S
N1072      C1082   1.360       .  A
N1073      N1074   1.336       .  A
N1073      N1075   1.321       .  A
N1074      C1083   1.371       .  A
N1075      N1076   1.324       .  A
N1076      C1083   1.355       .  A
N1077      N1078   1.333       .  A
N1078      C1082   1.362       .  A
Mn1079     N1244   2.261   1_545  S
C1082      C1085   1.566       .  S
C1083      C1084   1.574       .  S
C1084      C1183   1.674       .  S
C1084      C1193   1.666       .  S
C1084      C1206   1.652       .  S
C1085      C1166   1.677       .  S
C1085      C1173   1.689       .  S
C1085      C1203   1.651       .  S
C1086      C1143   1.625       .  S
C1086      C1156   1.673       .  S
C1086      C1163   1.682       .  S
C1087      C1133   1.653       .  S
C1087      C1146   1.656       .  S
C1087      C1186   1.659       .  S
C1088      C1113   1.655       .  S
C1088      C1123   1.648       .  S
C1088      C1196   1.650       .  S
C1089      C1106   1.630       .  S
C1089      C1116   1.657       .  S
C1089      C1136   1.681       .  S
C1090      C1096   1.710       .  S
C1090      C1103   1.656       .  S
C1090      C1153   1.705       .  S
C1091      C1093   1.677       .  S
C1091      C1126   1.642       .  S
C1091      C1176   1.670       .  S
C1092      C1093   1.418       .  A
C1092      C1097   1.448       .  A
C1092     Br1099   1.929       .  S
C1093      C1094   1.443       .  A
C1094      C1095   1.465       .  A
C1094     Br1101   1.951       .  S
C1095      C1096   1.454       .  A
C1095     Br1100   1.927       .  S
C1096      C1097   1.455       .  A
C1097     Br1098   1.908       .  S
C1102      C1103   1.451       .  A
C1102      C1107   1.490       .  A
C1102     Br1109   1.913       .  S
C1103      C1104   1.395       .  A
C1104      C1105   1.399       .  A
C1104     Br1111   1.779       .  S
C1105      C1106   1.380       .  A
C1105     Br1110   1.925       .  S
C1106      C1107   1.461       .  A
C1107     Br1108   1.905       .  S
C1112      C1113   1.421       .  A
C1112      C1117   1.410       .  A
C1112     Br1119   1.845       .  S
C1113      C1114   1.453       .  A
C1114      C1115   1.463       .  A
C1114     Br1121   1.907       .  S
C1115      C1116   1.436       .  A
C1115     Br1120   1.887       .  S
C1116      C1117   1.383       .  A
C1117     Br1118   1.826       .  S
C1122      C1123   1.449       .  A
C1122      C1127   1.469       .  A
C1122     Br1129   1.929       .  S
C1123      C1124   1.411       .  A
C1124      C1125   1.403       .  A
C1124     Br1131   1.864       .  S
C1125      C1126   1.405       .  A
C1125     Br1130   1.891       .  S
C1126      C1127   1.458       .  A
C1127     Br1128   1.930       .  S
C1132      C1133   1.458       .  A
C1132      C1137   1.474       .  A
C1132     Br1139   1.926       .  S
C1133      C1134   1.382       .  A
C1134      C1135   1.386       .  A
C1134     Br1141   1.900       .  S
C1135      C1136   1.414       .  A
C1135     Br1140   1.828       .  S
C1136      C1137   1.477       .  A
C1137     Br1138   1.939       .  S
C1142      C1143   1.447       .  A
C1142      C1147   1.476       .  A
C1142     Br1149   1.924       .  S
C1143      C1144   1.377       .  A
C1144      C1145   1.377       .  A
C1144     Br1151   1.830       .  S
C1145      C1146   1.405       .  A
C1145     Br1150   1.847       .  S
C1146      C1147   1.462       .  A
C1147     Br1148   1.917       .  S
C1152      C1153   1.431       .  A
C1152      C1157   1.445       .  A
C1152     Br1159   1.792       .  S
C1153      C1154   1.442       .  A
C1154      C1155   1.467       .  A
C1154     Br1161   1.923       .  S
C1155      C1156   1.447       .  A
C1155     Br1160   1.870       .  S
C1156      C1157   1.392       .  A
C1157     Br1158   1.890       .  S
C1162      C1163   1.455       .  A
C1162      C1167   1.468       .  A
C1162     Br1169   1.910       .  S
C1163      C1164   1.432       .  A
C1164      C1165   1.439       .  A
C1164     Br1171   1.919       .  S
C1165      C1166   1.427       .  A
C1165     Br1170   1.892       .  S
C1166      C1167   1.434       .  A
C1167     Br1168   1.923       .  S
C1172      C1173   1.439       .  A
C1172      C1177   1.454       .  A
C1172     Br1179   1.907       .  S
C1173      C1174   1.442       .  A
C1174      C1175   1.436       .  A
C1174     Br1181   1.852       .  S
C1175      C1176   1.406       .  A
C1175     Br1180   1.868       .  S
C1176      C1177   1.428       .  A
C1177     Br1178   1.871       .  S
C1182      C1183   1.415       .  A
C1182      C1187   1.453       .  A
C1182     Br1189   1.896       .  S
C1183      C1184   1.437       .  A
C1184      C1185   1.457       .  A
C1184     Br1191   1.853       .  S
C1185      C1186   1.433       .  A
C1185     Br1190   1.917       .  S
C1186      C1187   1.434       .  A
C1187     Br1188   1.887       .  S
C1192      C1193   1.421       .  A
C1192      C1197   1.434       .  A
C1192     Br1199   1.924       .  S
C1193      C1194   1.445       .  A
C1194      C1195   1.457       .  A
C1194     Br1201   1.942       .  S
C1195      C1196   1.444       .  A
C1195     Br1200   1.924       .  S
C1196      C1197   1.445       .  A
C1197     Br1198   1.909       .  S
C1202      C1203   1.451       .  A
C1202      C1207   1.471       .  A
C1202     Br1209   1.928       .  S
C1203      C1204   1.389       .  A
C1204      C1205   1.402       .  A
C1204     Br1211   1.825       .  S
C1205      C1206   1.416       .  A
C1205     Br1210   1.903       .  S
C1206      C1207   1.459       .  A
C1207     Br1208   1.931       .  S
N1212      N1213   1.334       .  A
N1212      N1218   1.320       .  A
N1213      C1220   1.369       .  A
N1214      N1216   1.316       .  A
N1214      N1215   1.331       .  A
N1215      C1221   1.363       .  A
N1216      N1217   1.321       .  A
N1217      C1221   1.351       .  A
N1218      N1219   1.331       .  A
N1219      C1220   1.360       .  A
C1220      C1263   1.576       .  S
C1221      C1262   1.546       .  S
N1222      N1228   1.318       .  A
N1222      N1223   1.328       .  A
N1223      C1231   1.354       .  A
N1224      N1225   1.323       .  A
N1224      N1226   1.318       .  A
N1224     Mn1230   2.248       .  S
N1225      C1232   1.360       .  A
N1226      N1227   1.334       .  A
N1226     Mn1252   2.256   1_565  S
N1227      C1232   1.365       .  A
N1228      N1229   1.338       .  A
N1229      C1231   1.372       .  A
C1231      C1260   1.583       .  S
C1232      C1259   1.558       .  S
N1233      N1234   1.337       .  A
N1233      N1239   1.317       .  A
N1233     Mn1241   2.247   1_556  S
N1234      C1242   1.367       .  A
N1235      N1237   1.319       .  A
N1235      N1236   1.326       .  A
N1236      C1243   1.363       .  A
N1237      N1238   1.331       .  A
N1238      C1243   1.360       .  A
N1239      N1240   1.320       .  A
N1239     Mn1253   2.264       .  S
N1240      C1242   1.363       .  A
C1242      C1261   1.589       .  S
C1243      C1264   1.567       .  S
N1244      N1245   1.322       .  A
N1244      N1250   1.318       .  A
N1245      C1255   1.360       .  A
N1246      N1247   1.336       .  A
N1246      N1248   1.321       .  A
N1247      C1256   1.371       .  A
N1248      N1249   1.324       .  A
N1249      C1256   1.355       .  A
N1250      N1251   1.333       .  A
N1251      C1255   1.362       .  A
C1255      C1258   1.566       .  S
C1256      C1257   1.574       .  S
C1257      C1356   1.674       .  S
C1257      C1366   1.666       .  S
C1257      C1379   1.652       .  S
C1258      C1339   1.677       .  S
C1258      C1346   1.689       .  S
C1258      C1376   1.651       .  S
C1259      C1316   1.625       .  S
C1259      C1329   1.673       .  S
C1259      C1336   1.682       .  S
C1260      C1306   1.653       .  S
C1260      C1319   1.656       .  S
C1260      C1359   1.659       .  S
C1261      C1286   1.655       .  S
C1261      C1296   1.648       .  S
C1261      C1369   1.650       .  S
C1262      C1279   1.630       .  S
C1262      C1289   1.657       .  S
C1262      C1309   1.681       .  S
C1263      C1269   1.710       .  S
C1263      C1276   1.656       .  S
C1263      C1326   1.705       .  S
C1264      C1266   1.677       .  S
C1264      C1299   1.642       .  S
C1264      C1349   1.670       .  S
C1265      C1266   1.418       .  A
C1265      C1270   1.448       .  A
C1265     Br1272   1.929       .  S
C1266      C1267   1.443       .  A
C1267      C1268   1.465       .  A
C1267     Br1274   1.951       .  S
C1268      C1269   1.454       .  A
C1268     Br1273   1.927       .  S
C1269      C1270   1.455       .  A
C1270     Br1271   1.908       .  S
C1275      C1276   1.451       .  A
C1275      C1280   1.490       .  A
C1275     Br1282   1.913       .  S
C1276      C1277   1.395       .  A
C1277      C1278   1.399       .  A
C1277     Br1284   1.779       .  S
C1278      C1279   1.380       .  A
C1278     Br1283   1.925       .  S
C1279      C1280   1.461       .  A
C1280     Br1281   1.905       .  S
C1285      C1286   1.421       .  A
C1285      C1290   1.410       .  A
C1285     Br1292   1.845       .  S
C1286      C1287   1.453       .  A
C1287      C1288   1.463       .  A
C1287     Br1294   1.907       .  S
C1288      C1289   1.436       .  A
C1288     Br1293   1.887       .  S
C1289      C1290   1.383       .  A
C1290     Br1291   1.826       .  S
C1295      C1296   1.449       .  A
C1295      C1300   1.469       .  A
C1295     Br1302   1.929       .  S
C1296      C1297   1.411       .  A
C1297      C1298   1.403       .  A
C1297     Br1304   1.864       .  S
C1298      C1299   1.405       .  A
C1298     Br1303   1.891       .  S
C1299      C1300   1.458       .  A
C1300     Br1301   1.930       .  S
C1305      C1306   1.458       .  A
C1305      C1310   1.474       .  A
C1305     Br1312   1.926       .  S
C1306      C1307   1.382       .  A
C1307      C1308   1.386       .  A
C1307     Br1314   1.900       .  S
C1308      C1309   1.414       .  A
C1308     Br1313   1.828       .  S
C1309      C1310   1.477       .  A
C1310     Br1311   1.939       .  S
C1315      C1316   1.447       .  A
C1315      C1320   1.476       .  A
C1315     Br1322   1.924       .  S
C1316      C1317   1.377       .  A
C1317      C1318   1.377       .  A
C1317     Br1324   1.830       .  S
C1318      C1319   1.405       .  A
C1318     Br1323   1.847       .  S
C1319      C1320   1.462       .  A
C1320     Br1321   1.917       .  S
C1325      C1326   1.431       .  A
C1325      C1330   1.445       .  A
C1325     Br1332   1.792       .  S
C1326      C1327   1.442       .  A
C1327      C1328   1.467       .  A
C1327     Br1334   1.923       .  S
C1328      C1329   1.447       .  A
C1328     Br1333   1.870       .  S
C1329      C1330   1.392       .  A
C1330     Br1331   1.890       .  S
C1335      C1336   1.455       .  A
C1335      C1340   1.468       .  A
C1335     Br1342   1.910       .  S
C1336      C1337   1.432       .  A
C1337      C1338   1.439       .  A
C1337     Br1344   1.919       .  S
C1338      C1339   1.427       .  A
C1338     Br1343   1.892       .  S
C1339      C1340   1.434       .  A
C1340     Br1341   1.923       .  S
C1345      C1346   1.439       .  A
C1345      C1350   1.454       .  A
C1345     Br1352   1.907       .  S
C1346      C1347   1.442       .  A
C1347      C1348   1.436       .  A
C1347     Br1354   1.852       .  S
C1348      C1349   1.406       .  A
C1348     Br1353   1.868       .  S
C1349      C1350   1.428       .  A
C1350     Br1351   1.871       .  S
C1355      C1356   1.415       .  A
C1355      C1360   1.453       .  A
C1355     Br1362   1.896       .  S
C1356      C1357   1.437       .  A
C1357      C1358   1.457       .  A
C1357     Br1364   1.853       .  S
C1358      C1359   1.433       .  A
C1358     Br1363   1.917       .  S
C1359      C1360   1.434       .  A
C1360     Br1361   1.887       .  S
C1365      C1366   1.421       .  A
C1365      C1370   1.434       .  A
C1365     Br1372   1.924       .  S
C1366      C1367   1.445       .  A
C1367      C1368   1.457       .  A
C1367     Br1374   1.942       .  S
C1368      C1369   1.444       .  A
C1368     Br1373   1.924       .  S
C1369      C1370   1.445       .  A
C1370     Br1371   1.909       .  S
C1375      C1376   1.451       .  A
C1375      C1380   1.471       .  A
C1375     Br1382   1.928       .  S
C1376      C1377   1.389       .  A
C1377      C1378   1.402       .  A
C1377     Br1384   1.825       .  S
C1378      C1379   1.416       .  A
C1378     Br1383   1.903       .  S
C1379      C1380   1.459       .  A
C1380     Br1381   1.931       .  S
