geometry optimzed in LAMMPS
_audit_creation_date              2020-11-30 
_audit_creation_method            'lammps2cif' 
_symmetry_space_group_name_H-M    'P1' 
_symmetry_Int_Tables_number       1 
_symmetry_cell_setting            triclinic 
loop_ 
_symmetry_equiv_pos_as_xyz 
  x,y,z 
_cell_length_a                    33.3083683250474 
_cell_length_b                    33.3613392589455 
_cell_length_c                    33.25560970422594 
_cell_angle_alpha                 90.05822506659119 
_cell_angle_beta                  89.66251341688843 
_cell_angle_gamma                 89.99960118475119 
loop_ 
_atom_site_label 
_atom_site_type_symbol 
_atom_site_fract_x 
_atom_site_fract_y 
_atom_site_fract_z 
_atom_site_charge 
O1          O  0.00849347  0.11381227  0.05340178    -0.86910
O2          O  0.99817256  0.89023139  0.06031598    -0.87080
O3          O  0.93788116  0.00198756  0.10627172    -0.88750
O4          O  0.06598384  0.00079021  0.10402726    -0.87500
O5          O  0.11516645  0.99939838  0.05541360    -0.87090
O6          O  0.88942405  0.00084410  0.05729152    -0.88460
O7          O  0.00211746  0.93999383  0.10788926    -0.86940
O8          O  0.00692320  0.06703778  0.10386770    -0.86530
Zr9        Zr  0.00142111  0.00224648  0.07277985     2.84310
O10         O  0.04056214  0.95976677  0.03413351    -1.08500
O11         O  0.96041599  0.04276885  0.03396924    -1.09230
C12         C  0.01049734  0.10294119  0.09029910     1.06200
C13         C  0.00005141  0.90329882  0.09657164     1.06140
C14         C  0.90150004  0.00034419  0.09393146     1.09120
C15         C  0.10271411  0.00090675  0.09196268     1.06900
H16         H  0.94251900  0.94510028  0.05180937     0.32460
O17         O  0.95966940  0.96128902  0.03488489    -1.29460
H18         H  0.06052716  0.05674001  0.04768982     0.32130
O19         O  0.04295771  0.04000923  0.03198019    -1.31130
O20         O  0.99337974  0.88437885  0.93282202    -0.86910
O21         O  0.00459035  0.10986998  0.92758219    -0.88400
O22         O  0.88624290  0.94055501  0.99017682    -0.86980
O23         O  0.11113312  0.93359084  0.00227816    -0.87030
O24         O  0.11331537  0.06222600  0.98689138    -0.86740
O25         O  0.88924527  0.06440469  0.99455009    -0.86550
O26         O  0.94216029  0.00013737  0.87816464    -0.86920
O27         O  0.06783456  0.98823490  0.88085023    -0.86380
O28         O  0.89272783  0.00352630  0.92677040    -0.87450
O29         O  0.11599847  0.98689915  0.92996613    -0.86600
O30         O  0.93342336  0.89052036  0.99486276    -0.87000
O31         O  0.93851541  0.11247254  0.99415883    -0.86720
O32         O  0.06465045  0.11119622  0.98886213    -0.86380
O33         O  0.06133393  0.88582536  0.00127670    -0.86780
O34         O  0.99214129  0.93287048  0.88402915    -0.87080
O35         O  0.00705064  0.06125746  0.87886601    -0.88420
Zr36       Zr  0.99898722  0.92021843  0.99509805     2.83100
Zr37       Zr  0.00209578  0.07849897  0.99148274     2.83500
Zr38       Zr  0.92221672  0.00176374  0.99279049     2.84090
Zr39       Zr  0.08135515  0.99767055  0.99225280     2.83360
Zr40       Zr  0.00364094  0.99766818  0.91304072     2.84220
O41         O  0.04383125  0.03903308  0.95115864    -1.08990
O42         O  0.96093935  0.95984459  0.95318545    -1.08490
C43         C  0.98958043  0.89645745  0.89636552     1.06170
C44         C  0.00649582  0.09790998  0.89103042     1.08790
C45         C  0.89744481  0.90394758  0.99178317     1.06340
C46         C  0.09776097  0.89766001  0.00460255     1.06700
C47         C  0.10085768  0.09872239  0.98752417     1.06290
C48         C  0.90181957  0.10059486  0.99488201     1.05840
C49         C  0.90576442  0.00252106  0.89026029     1.06260
C50         C  0.10404482  0.98416444  0.89347255     1.05780
H51         H  0.94633002  0.05724106  0.93388880     0.32450
O52         O  0.96229993  0.03998607  0.95071966    -1.30090
H53         H  0.05750140  0.93694695  0.93749156     0.32480
O54         O  0.04185320  0.95579417  0.95309403    -1.31470
C55         C  0.01454627  0.23150137  0.28265702     0.02710
C56         C  0.01349612  0.27387066  0.27524462    -0.13440
C57         C  0.01861648  0.28790271  0.23471566     0.00210
C58         C  0.02649651  0.26020979  0.20448900    -0.11970
C59         C  0.02110392  0.21996988  0.21142696     0.02700
C60         C  0.01462362  0.20570903  0.24982273    -0.11390
H61         H  0.00925589  0.29484484  0.29973457     0.08290
H62         H  0.03223326  0.27024793  0.17391248     0.05820
H63         H  0.01110225  0.17365450  0.25438087     0.05670
O64         O  0.99877672  0.11674819  0.43756668    -0.75710
O65         O  0.00343588  0.06962542  0.38756827    -0.54620
C66         C  0.00177881  0.10650460  0.40050856     0.78010
O67         O  0.11194659  0.00224722  0.56874645    -0.60310
O68         O  0.06470042  0.00357782  0.61897506    -0.53340
C69         C  0.10175616  0.00234835  0.60593714     0.70030
O70         O  0.11521914  0.00396795  0.43957896    -0.74870
O71         O  0.06933766  0.00268908  0.38852187    -0.55440
C72         C  0.10594725  0.00344343  0.40229407     0.76030
O73         O  0.99459654  0.11613119  0.56764802    -0.60020
O74         O  0.99348373  0.06951297  0.61817944    -0.53140
C75         C  0.99345297  0.10625886  0.60487644     0.72620
Zr76       Zr  0.99710085  0.08453474  0.50250892     2.54710
O77         O  0.05090117  0.13390302  0.50360897    -0.80580
O78         O  0.94098491  0.13134004  0.50340406    -0.94000
Zr79       Zr  0.08117420  0.00371151  0.50356140     2.64680
O80         O  0.12763632  0.06011350  0.50374277    -0.98950
O81         O  0.13145612  0.95072317  0.50312122    -0.81020
O82         O  0.04048741  0.04459402  0.46248559    -0.84370
O83         O  0.03897809  0.04474266  0.54376907    -2.19080
O84         O  0.88277625  0.00145695  0.56497780    -0.67760
O85         O  0.92853871  0.00015428  0.61621527    -0.52330
C86         C  0.89196284  0.00067021  0.60227983     0.71010
O87         O  0.99700639  0.88772245  0.43724871    -0.60670
O88         O  0.00153110  0.93473331  0.38731428    -0.52650
C89         C  0.99929738  0.89785947  0.40007397     0.72810
O90         O  0.00391537  0.88895604  0.56823881    -0.72070
O91         O  0.00142566  0.93544463  0.61877270    -0.50740
C92         C  0.00383485  0.89869359  0.60561482     0.74190
O93         O  0.88555105  0.00021534  0.43513152    -0.67400
O94         O  0.93395223  0.00125138  0.38584589    -0.54590
C95         C  0.89667969  0.00051892  0.39814419     0.72570
Zr96       Zr  0.91635847  0.00072750  0.50077540     2.77540
O97         O  0.86927184  0.94487094  0.49923014    -0.98150
O98         O  0.86741460  0.05491998  0.49972156    -0.78970
Zr99       Zr  0.00007256  0.91969774  0.50253082     2.70070
O100        O  0.94647946  0.87019954  0.50637862    -0.80210
O101        O  0.05597315  0.87277909  0.49865322    -0.99300
Zr102      Zr  0.00074913  0.00214026  0.42038792     2.21500
Zr103      Zr  0.99735628  0.00224938  0.58474021     2.11130
O104        O  0.95697851  0.95988709  0.54252166    -2.47980
O105        O  0.95886467  0.95982334  0.46103921    -0.80010
O106        O  0.95566580  0.04274978  0.54240676    -0.72200
O107        O  0.04193201  0.96109962  0.46255593    -2.33160
O108        O  0.95720874  0.04317174  0.46087604    -2.29370
O109        O  0.04031004  0.96136066  0.54357033    -0.73960
H110        H  0.05520666  0.06192918  0.56047243     0.78040
H111        H  0.05920085  0.94433162  0.44630064     0.79120
H112        H  0.94020529  0.94265959  0.55881377     0.81350
H113        H  0.94047713  0.05970705  0.44403055     0.78960
H114        H  0.12164447  0.93071466  0.48350806     0.41990
H115        H  0.07311569  0.87962903  0.52189696     0.40960
H116        H  0.92671592  0.87900754  0.48609552     0.40640
H117        H  0.87392179  0.93000199  0.52452600     0.38570
H118        H  0.87579876  0.07319723  0.52159666     0.41700
H119        H  0.92395795  0.12328542  0.48048643     0.36490
H120        H  0.07109073  0.12362629  0.48421465     0.42610
H121        H  0.12213552  0.07456361  0.52919887     0.39020
H122        H  0.84255929  0.95741575  0.50292899     0.43940
H123        H  0.95279128  0.15733227  0.49519207     0.42660
H124        H  0.15437506  0.04779405  0.50766499     0.42800
H125        H  0.04408695  0.84646943  0.50563997     0.43160
C126        C  0.77056797  0.98833733  0.28198164     0.02710
C127        C  0.79693955  0.97876862  0.25081509    -0.13440
C128        C  0.78336799  0.97373058  0.21198931     0.00210
C129        C  0.74310328  0.97632302  0.20329120    -0.11970
C130        C  0.71553156  0.98872743  0.23220561     0.02700
C131        C  0.72897364  0.99475853  0.27274165    -0.11390
H132        H  0.82899896  0.97743194  0.25646940     0.08290
H133        H  0.73381530  0.97281078  0.17219519     0.05820
H134        H  0.70814637  0.00436115  0.29590506     0.05670
C135        C  0.00726232  0.71534517  0.23501627     0.02710
C136        C  0.01224845  0.74445030  0.20562505    -0.13440
C137        C  0.00870970  0.78433910  0.21511357     0.00210
C138        C  0.00126770  0.79655692  0.25392639    -0.11970
C139        C  0.00344265  0.76958263  0.28574414     0.02700
C140        C  0.00517309  0.72749393  0.27645524    -0.11390
H141        H  0.01614906  0.73592945  0.17428180     0.08290
H142        H  0.99691440  0.82833987  0.25968777     0.05820
H143        H  0.00499982  0.70524118  0.30006325     0.05670
C144        C  0.28429575  0.00599803  0.23527098     0.02710
C145        C  0.25414443  0.00903586  0.20681247    -0.13440
C146        C  0.21460296  0.01457485  0.21804610     0.00210
C147        C  0.20423302  0.01936386  0.25793476    -0.11970
C148        C  0.23248734  0.01365053  0.28807698     0.02700
C149        C  0.27356711  0.00673384  0.27703416    -0.11390
H150        H  0.26154723  0.00609615  0.17507609     0.08290
H151        H  0.17296565  0.02471499  0.26567498     0.05820
H152        H  0.29614142  0.00237554  0.29987711     0.05670
C153        C  0.98744485  0.76958630  0.71852920     0.02710
C154        C  0.95537038  0.78791459  0.73866179    -0.13440
C155        C  0.94988240  0.78083901  0.77955961     0.00210
C156        C  0.96471286  0.74546794  0.79587866    -0.11970
C157        C  0.99280526  0.72231834  0.77505172     0.02700
C158        C  0.00624175  0.73557764  0.73646486    -0.11390
H159        H  0.94257611  0.81507928  0.72611087     0.08290
H160        H  0.95918262  0.73873088  0.82730280     0.05820
H161        H  0.03102489  0.72069641  0.72147610     0.05670
C162        C  0.23316468  0.98555773  0.71513956     0.02710
C163        C  0.21303077  0.95545534  0.73633404    -0.13440
C164        C  0.22178385  0.94876495  0.77643270     0.00210
C165        C  0.25820670  0.96140084  0.79177915    -0.11970
C166        C  0.28241788  0.98822910  0.77045325     0.02700
C167        C  0.26925437  0.00182536  0.73183328    -0.11390
H168        H  0.18421896  0.94490765  0.72538715     0.08290
H169        H  0.26490212  0.95516543  0.82308489     0.05820
H170        H  0.28596948  0.02464927  0.71582374     0.05670
C171        C  0.00056889  0.23449514  0.71672569     0.02710
C172        C  0.02057519  0.20911555  0.74294899    -0.13440
C173        C  0.03345465  0.22224550  0.78018880     0.00210
C174        C  0.03030327  0.26239681  0.79023468    -0.11970
C175        C  0.00602820  0.28784677  0.76775056     0.02700
C176        C  0.99157766  0.27445146  0.72954761    -0.11390
H177        H  0.02255868  0.17748099  0.73556580     0.08290
H178        H  0.04034336  0.27182444  0.81980367     0.05820
H179        H  0.97312095  0.29380650  0.71124142     0.05670
C180        C  0.76186562  0.99790796  0.71166983     0.02710
C181        C  0.79085553  0.99939564  0.74132337    -0.13440
C182        C  0.78026569  0.00007289  0.78116708     0.00210
C183        C  0.74096509  0.00022703  0.79348686    -0.11970
C184        C  0.71022330  0.99823961  0.76552764     0.02700
C185        C  0.72025710  0.99731152  0.72339283    -0.11390
H186        H  0.82257996  0.99959451  0.73335952     0.08290
H187        H  0.73432470  0.00084274  0.82552729     0.05820
H188        H  0.69693171  0.99568478  0.70095339     0.05670
O189        O  0.56478723  0.11546554  0.00292526    -0.75710
O190        O  0.61496038  0.06846566  0.00076417    -0.54620
C191        C  0.60190004  0.10540143  0.00162096     0.78010
O192        O  0.43460240  0.99849290  0.11722621    -0.60310
O193        O  0.38423296  0.99939317  0.07057975    -0.53340
C194        C  0.39744890  0.99863983  0.10740528     0.70030
O195        O  0.56451242  0.99873655  0.11652118    -0.74870
O196        O  0.61488374  0.00099021  0.06930069    -0.55440
C197        C  0.60168013  0.99955353  0.10631978     0.76030
O198        O  0.43549199  0.11584146  0.00331041    -0.60020
O199        O  0.38495590  0.06916908  0.00460069    -0.53140
C200        C  0.39833553  0.10599268  0.00425453     0.72620
Zr201      Zr  0.49992996  0.08314343  0.00310264     2.54710
O202        O  0.49992755  0.13012025  0.05916751    -0.80580
O203        O  0.49897896  0.13160935  0.94834229    -0.94000
Zr204      Zr  0.49958624  0.99994023  0.08470669     2.64680
O205        O  0.50072261  0.05549205  0.13229377    -0.98950
O206        O  0.49866857  0.94601671  0.13399435    -0.81020
O207        O  0.54049717  0.04176207  0.04402735    -0.84370
O208        O  0.45906987  0.04203940  0.04457011    -2.19080
O209        O  0.43322484  0.00202403  0.88850481    -0.67760
O210        O  0.38308532  0.00343481  0.93591337    -0.52330
C211        C  0.39600884  0.00268987  0.89885734     0.71010
O212        O  0.56403613  0.88584453  0.99885878    -0.60670
O213        O  0.61455153  0.93237961  0.00172705    -0.52650
C214        C  0.60120298  0.89556815  0.00014132     0.72810
O215        O  0.43510203  0.88609269  0.00102170    -0.72070
O216        O  0.38457997  0.93269870  0.00011725    -0.50740
C217        C  0.39792683  0.89583390  0.00027912     0.74190
O218        O  0.56344839  0.00160799  0.88666705    -0.67400
O219        O  0.61409362  0.99914351  0.93303920    -0.54590
C220        C  0.60058214  0.00014994  0.89628305     0.72570
Zr221      Zr  0.49893080  0.00197940  0.91949872     2.77540
O222        O  0.50187050  0.94816992  0.87005201    -0.98150
O223        O  0.49883167  0.05793211  0.87256739    -0.78970
Zr224      Zr  0.49958354  0.91858653  0.00100877     2.70070
O225        O  0.49869808  0.87057985  0.94582742    -0.80210
O226        O  0.50263668  0.87096634  0.05632525    -0.99300
Zr227      Zr  0.58184748  0.00057032  0.00150204     2.21500
Zr228      Zr  0.41727452  0.00091440  0.00273047     2.11130
O229        O  0.45871890  0.95974235  0.96013990    -2.47980
O230        O  0.53988420  0.95995634  0.95953123    -0.80010
O231        O  0.45870829  0.04308657  0.96138304    -0.72200
O232        O  0.54013286  0.95874877  0.04300893    -2.33160
O233        O  0.54019226  0.04267677  0.96052791    -2.29370
O234        O  0.45880391  0.95871437  0.04361394    -0.73960
H235        H  0.44270363  0.05878737  0.06178334     0.78040
H236        H  0.55648202  0.94156905  0.05956539     0.79120
H237        H  0.44231680  0.94303777  0.94312873     0.81350
H238        H  0.55660911  0.05959264  0.94356524     0.78960
H239        H  0.51876393  0.92645131  0.12410052     0.41990
H240        H  0.48172115  0.88007334  0.07550691     0.40960
H241        H  0.52039122  0.87955265  0.92745062     0.40640
H242        H  0.48238216  0.92795289  0.87976922     0.38570
H243        H  0.47757652  0.07609709  0.88276976     0.41700
H244        H  0.52367439  0.12626007  0.93251421     0.36490
H245        H  0.52189519  0.12079561  0.07677622     0.42610
H246        H  0.47515202  0.06998146  0.12809897     0.39020
H247        H  0.48958558  0.95953898  0.84554479     0.43940
H248        H  0.50394524  0.15779127  0.96145112     0.42660
H249        H  0.49757414  0.04267984  0.15897037     0.42800
H250        H  0.49210367  0.84559123  0.04508990     0.43160
O251        O  0.11407051  0.43451698  0.00413725    -0.75710
O252        O  0.06651099  0.38484216  0.00438545    -0.54620
C253        C  0.10363467  0.39757801  0.00484719     0.78010
O254        O  0.00264923  0.56467031  0.11854956    -0.60310
O255        O  0.00193638  0.61524641  0.07196438    -0.53340
C256        C  0.00275303  0.60177720  0.10876046     0.70030
O257        O  0.00257565  0.43576122  0.11789058    -0.74870
O258        O  0.00006461  0.38547158  0.07098304    -0.55440
C259        C  0.00196059  0.39869494  0.10791904     0.76030
O260        O  0.11571991  0.56352499  0.00022726    -0.60020
O261        O  0.06962902  0.61455526  0.00090572    -0.53140
C262        C  0.10632483  0.60076154  0.99985669     0.72620
Zr263      Zr  0.08244282  0.49944411  0.00201747     2.54710
O264        O  0.13105447  0.50038779  0.05639861    -0.80580
O265        O  0.12961556  0.49837274  0.94572756    -0.94000
Zr266      Zr  0.00066107  0.50030539  0.08582101     2.64680
O267        O  0.05567344  0.49782970  0.13372573    -0.98950
O268        O  0.94553723  0.50133686  0.13427811    -0.81020
O269        O  0.04111375  0.45944588  0.04388351    -0.84370
O270        O  0.04269252  0.54048565  0.04463619    -2.19080
O271        O  0.00106321  0.56714915  0.88973364    -0.67760
O272        O  0.00299154  0.61698604  0.93703275    -0.52330
C273        C  0.00230172  0.60431175  0.89996806     0.71010
O274        O  0.88349732  0.43836177  0.00183336    -0.60670
O275        O  0.92955663  0.38728901  0.00085179    -0.52650
C276        C  0.89280953  0.40114346  0.00054179     0.72810
O277        O  0.88573781  0.56674896  0.00514645    -0.72070
O278        O  0.93324696  0.61645520  0.00496539    -0.50740
C279        C  0.89612837  0.60370114  0.00507860     0.74190
O280        O  0.99868445  0.43660171  0.88857860    -0.67400
O281        O  0.99727027  0.38578056  0.93485488    -0.54590
C282        C  0.99792558  0.39935466  0.89805304     0.72570
Zr283      Zr  0.99931060  0.50134214  0.92085170     2.77540
O284        O  0.94317613  0.49750973  0.87452366    -0.98150
O285        O  0.05313836  0.50223739  0.87105403    -0.78970
Zr286      Zr  0.91754359  0.50194946  0.00481272     2.70070
O287        O  0.86777710  0.50419379  0.95151954    -0.80210
O288        O  0.87202625  0.50040490  0.06235336    -0.99300
Zr289      Zr  0.99865071  0.41842400  0.00295085     2.21500
Zr290      Zr  0.00110830  0.58282126  0.00391667     2.11130
O291        O  0.95841307  0.54222697  0.96246093    -2.47980
O292        O  0.95769584  0.46126006  0.96240755    -0.80010
O293        O  0.04172741  0.54088028  0.96150817    -0.72200
O294        O  0.95793264  0.46022554  0.04561170    -2.33160
O295        O  0.04067100  0.45955299  0.96074362    -2.29370
O296        O  0.95921963  0.54190089  0.04604757    -0.73960
H297        H  0.06011708  0.55654035  0.06126360     0.78040
H298        H  0.94094625  0.44390473  0.06260334     0.79120
H299        H  0.94162177  0.55892546  0.94584344     0.81350
H300        H  0.05720161  0.44292909  0.94357587     0.78960
H301        H  0.92999397  0.47663348  0.12889144     0.41990
H302        H  0.87822464  0.52506884  0.07769502     0.40960
H303        H  0.87670544  0.48365744  0.93190056     0.40640
H304        H  0.92542219  0.52010908  0.88203046     0.38570
H305        H  0.07368047  0.52031947  0.88252763     0.41700
H306        H  0.12346838  0.47348944  0.93073647     0.36490
H307        H  0.12143477  0.47970695  0.07549178     0.42610
H308        H  0.07358050  0.52028581  0.12612569     0.39020
H309        H  0.95471239  0.50492477  0.84806497     0.43940
H310        H  0.15605859  0.49321536  0.95815160     0.42660
H311        H  0.04357511  0.50613485  0.15969472     0.42800
H312        H  0.84513821  0.50535789  0.05082712     0.43160
C313        C  0.28701542  0.23460667  0.00957497     0.02710
C314        C  0.25729541  0.20572347  0.00641105    -0.13440
C315        C  0.21760042  0.21631976  0.00616293     0.00210
C316        C  0.20542682  0.25551073  0.00860871    -0.11970
C317        C  0.23330544  0.28626696  0.01116459     0.02700
C318        C  0.27540589  0.27620389  0.01155760    -0.11390
H319        H  0.26507385  0.17411615  0.00442673     0.08290
H320        H  0.17346605  0.26209863  0.00793676     0.05820
H321        H  0.29791198  0.29947402  0.01365873     0.05670
C322        C  0.28515364  0.76749946  0.00054457     0.02710
C323        C  0.25572193  0.79426920  0.01316810    -0.13440
C324        C  0.21711602  0.78147613  0.02047930     0.00210
C325        C  0.20716735  0.74153528  0.01984485    -0.11970
C326        C  0.23457953  0.71321207  0.00607207     0.02700
C327        C  0.27465204  0.72593783  0.99596053    -0.11390
H328        H  0.26203207  0.82621731  0.01423181     0.08290
H329        H  0.17605268  0.73312373  0.02517820     0.05820
H330        H  0.29639715  0.70465794  0.98449155     0.05670
C331        C  0.76526110  0.28835646  0.98677710     0.02710
C332        C  0.72390173  0.27673092  0.99215000    -0.13440
C333        C  0.71362018  0.23475859  0.99117668     0.00210
C334        C  0.74415491  0.20685132  0.98634409    -0.11970
C335        C  0.78342265  0.21878377  0.98190811     0.02700
C336        C  0.79390658  0.25855768  0.98174403    -0.11390
H337        H  0.70086988  0.29918891  0.99659062     0.08290
H338        H  0.73743756  0.17497572  0.98721958     0.05820
H339        H  0.82552644  0.26626243  0.97909006     0.05670
C340        C  0.76596920  0.71461890  0.00081306     0.02710
C341        C  0.79358133  0.74502485  0.99394031    -0.13440
C342        C  0.78116430  0.78396406  0.98969904     0.00210
C343        C  0.74136816  0.79435428  0.99007435    -0.11970
C344        C  0.71196193  0.76595308  0.99785451     0.02700
C345        C  0.72392689  0.72476808  0.00326995    -0.11390
H346        H  0.82559253  0.73864683  0.99352641     0.08290
H347        H  0.73345975  0.82584113  0.98709343     0.05820
H348        H  0.70177351  0.70194377  0.00981434     0.05670
C349        C  0.86116709  0.63197070  0.00411274    -0.06550
C350        C  0.84545072  0.64715957  0.04037465    -0.17670
C351        C  0.80863184  0.66821674  0.04170848     0.10650
C352        C  0.78619584  0.67485981  0.00611934    -0.06470
C353        C  0.80033610  0.65642343  0.97061550    -0.17710
C354        C  0.83724205  0.63566720  0.96919517     0.10680
S355        S  0.79344997  0.68966262  0.08916395    -0.32670
S356        S  0.85316669  0.61580962  0.92125621    -0.32680
H357        H  0.89446975  0.62087679  0.92809939     0.28690
H358        H  0.75299240  0.69527076  0.07870384     0.28690
H359        H  0.86193413  0.64253318  0.06798032     0.19280
H360        H  0.78472949  0.66204575  0.94267421     0.19290
C361        C  0.85715161  0.37382719  0.99792993    -0.06550
C362        C  0.84396247  0.36213675  0.95963385    -0.17670
C363        C  0.80753337  0.34134290  0.95423661     0.10650
C364        C  0.78396800  0.32926226  0.98789769    -0.06470
C365        C  0.79523071  0.34424554  0.02573504    -0.17710
C366        C  0.83057340  0.36715252  0.03092210     0.10680
S367        S  0.79484923  0.32619104  0.90381840    -0.32670
S368        S  0.83950704  0.38652903  0.08075626    -0.32680
H369        H  0.87889233  0.40019364  0.07500170     0.28690
H370        H  0.75442250  0.31723513  0.91245847     0.28690
H371        H  0.86202074  0.36965333  0.93348813     0.19280
H372        H  0.77808309  0.33537724  0.05205207     0.19290
C373        C  0.14192246  0.62813959  0.99888964    -0.06550
C374        C  0.16680356  0.62910679  0.03292802    -0.17670
C375        C  0.20296259  0.65097414  0.03340289     0.10650
C376        C  0.21529774  0.67330310  0.99931265    -0.06470
C377        C  0.19219049  0.66931957  0.96407176    -0.17710
C378        C  0.15622523  0.64681938  0.96333299     0.10680
S379        S  0.23008541  0.65328942  0.08008072    -0.32670
S380        S  0.12963438  0.64441384  0.91629005    -0.32680
H381        H  0.10852693  0.60869224  0.92357926     0.28690
H382        H  0.26652578  0.66626664  0.06290208     0.28690
H383        H  0.15765650  0.61304168  0.05978126     0.19280
H384        H  0.20032256  0.68683342  0.93783113     0.19290
C385        C  0.13854779  0.36923915  0.00619528    -0.06550
C386        C  0.15413299  0.35799579  0.04373887    -0.17670
C387        C  0.19085761  0.33709390  0.04704532     0.10650
C388        C  0.21337279  0.32652541  0.01220839    -0.06470
C389        C  0.19944158  0.34110321  0.97504105    -0.17710
C390        C  0.16262412  0.36181321  0.97170375     0.10680
S391        S  0.20571153  0.32070096  0.09639275    -0.32670
S392        S  0.14711907  0.37681691  0.92214150    -0.32680
H393        H  0.10573831  0.37299177  0.92976175     0.28690
H394        H  0.24610140  0.31338773  0.08619241     0.28690
H395        H  0.13756016  0.36558557  0.07083597     0.19280
H396        H  0.21514482  0.33244892  0.94774585     0.19290
C397        C  0.63009679  0.14041006  0.00017562    -0.06550
C398        C  0.63519759  0.16060082  0.96337917    -0.17670
C399        C  0.65633128  0.19716747  0.96065669     0.10650
C400        C  0.67338511  0.21497064  0.99534931    -0.06470
C401        C  0.66504849  0.19649473  0.03265862    -0.17710
C402        C  0.64396598  0.15977984  0.03539771     0.10680
S403        S  0.66450607  0.21781927  0.91122742    -0.32670
S404        S  0.63635206  0.13886703  0.08483693    -0.32680
H405        H  0.63407158  0.09861819  0.07263370     0.28690
H406        H  0.67360831  0.25679286  0.92451338     0.28690
H407        H  0.62268287  0.14764754  0.93630846     0.19280
H408        H  0.67866229  0.20861253  0.05957770     0.19290
C409        C  0.32442302  0.78776325  0.99214059    -0.06550
C410        C  0.34887008  0.79478380  0.02566463    -0.17670
C411        C  0.37170077  0.83013441  0.02958006     0.10650
C412        C  0.37013295  0.86045493  0.99952979    -0.06470
C413        C  0.34854014  0.85190120  0.96438694    -0.17710
C414        C  0.32673876  0.81584145  0.96009418     0.10680
S415        S  0.40103541  0.83474907  0.07480772    -0.32670
S416        S  0.29995913  0.80821488  0.91384218    -0.32680
H417        H  0.29299760  0.76703689  0.91968342     0.28690
H418        H  0.40606352  0.87645051  0.07395190     0.28690
H419        H  0.34718414  0.77430857  0.05090930     0.19280
H420        H  0.34924549  0.87310105  0.93971976     0.19290
C421        C  0.62902068  0.86023504  0.99952403    -0.06550
C422        C  0.64239262  0.84405432  0.03611393    -0.17670
C423        C  0.66305701  0.80708123  0.03773606     0.10650
C424        C  0.67139560  0.78503799  0.00209328    -0.06470
C425        C  0.65436626  0.79947561  0.96615254    -0.17710
C426        C  0.63399619  0.83655912  0.96442708     0.10680
S427        S  0.68193791  0.79122908  0.08581213    -0.32670
S428        S  0.61649844  0.85293050  0.91589404    -0.32680
H429        H  0.61853441  0.89426183  0.92390550     0.28690
H430        H  0.68703872  0.75078724  0.07500075     0.28690
H431        H  0.63661433  0.86029485  0.06378134     0.19280
H432        H  0.66117739  0.78409971  0.93820648     0.19290
C433        C  0.32788273  0.21597640  0.01064322    -0.06550
C434        C  0.34277302  0.20153879  0.97355331    -0.17670
C435        C  0.36343732  0.16466915  0.97046792     0.10650
C436        C  0.37049128  0.14118076  0.00520132    -0.06470
C437        C  0.35924152  0.15740392  0.04262565    -0.17710
C438        C  0.33851959  0.19419877  0.04566368     0.10680
S439        S  0.37887337  0.14849998  0.92094169    -0.32670
S440        S  0.32190880  0.20980653  0.09491571    -0.32680
H441        H  0.31474761  0.24997681  0.08433927     0.28690
H442        H  0.37790004  0.10713218  0.92889687     0.28690
H443        H  0.33419664  0.21676499  0.94614091     0.19280
H444        H  0.36663969  0.14124115  0.06984816     0.19290
C445        C  0.66994687  0.99649505  0.78529832    -0.06550
C446        C  0.65531615  0.03306259  0.80073512    -0.17670
C447        C  0.63509598  0.03518891  0.83805094     0.10650
C448        C  0.62825143  0.99999235  0.86086528    -0.06470
C449        C  0.63930105  0.96308819  0.84369589    -0.17710
C450        C  0.65965831  0.96100176  0.80647243     0.10680
S451        S  0.61987347  0.08407611  0.85567542    -0.32670
S452        S  0.67615544  0.91236753  0.78944816    -0.32680
H453        H  0.68277516  0.92378522  0.74925143     0.28690
H454        H  0.62251544  0.07535096  0.89692863     0.28690
H455        H  0.66371186  0.06075068  0.78587934     0.19280
H456        H  0.63198887  0.93557374  0.85938308     0.19290
C457        C  0.99836011  0.37161925  0.86253926    -0.06550
C458        C  0.96707535  0.34397033  0.85699151    -0.17670
C459        C  0.96426847  0.32087467  0.82149285     0.10650
C460        C  0.99362731  0.32450318  0.79050576    -0.06470
C461        C  0.02314321  0.35415497  0.79502668    -0.17710
C462        C  0.02615673  0.37710944  0.83037072     0.10680
S463        S  0.92436578  0.28452410  0.81870187    -0.32670
S464        S  0.06839367  0.41085123  0.83337248    -0.32680
H465        H  0.07251750  0.40916413  0.87530622     0.28690
H466        H  0.92376406  0.28267185  0.77650533     0.28690
H467        H  0.94448142  0.34048947  0.88030592     0.19280
H468        H  0.04682983  0.35638737  0.77264159     0.19290
C469        C  0.31875920  0.00150141  0.79326365    -0.06550
C470        C  0.34784136  0.97167992  0.79960770    -0.17670
C471        C  0.37092656  0.97040787  0.83478534     0.10650
C472        C  0.36735892  0.00096072  0.86425798    -0.06470
C473        C  0.34042261  0.03253778  0.85679109    -0.17710
C474        C  0.31616514  0.03297341  0.82196154     0.10680
S475        S  0.40163864  0.92652932  0.84203525    -0.32670
S476        S  0.28039810  0.07307357  0.81692372    -0.32680
H477        H  0.27938063  0.07182067  0.77473938     0.28690
H478        H  0.39643823  0.92491932  0.88401069     0.28690
H479        H  0.34915393  0.94634057  0.77919379     0.19280
H480        H  0.33815024  0.05695125  0.87818937     0.19290
C481        C  0.00761159  0.68683359  0.79799270    -0.06550
C482        C  0.98262330  0.65305501  0.79732889    -0.17670
C483        C  0.97923234  0.62726200  0.83053149     0.10650
C484        C  0.00288887  0.63349719  0.86547269    -0.06470
C485        C  0.02982940  0.66594446  0.86521352    -0.17710
C486        C  0.03253270  0.69228993  0.83205646     0.10680
S487        S  0.94022130  0.59000103  0.82783230    -0.32670
S488        S  0.06608293  0.73445662  0.83606306    -0.32680
H489        H  0.06871147  0.74193165  0.79453008     0.28690
H490        H  0.92920427  0.59311184  0.86855231     0.28690
H491        H  0.96187301  0.64943213  0.77258333     0.19280
H492        H  0.04861610  0.67112182  0.89114374     0.19290
C493        C  0.32490579  0.00162751  0.21657704    -0.06550
C494        C  0.33216926  0.96513889  0.19634386    -0.17670
C495        C  0.35322255  0.96369455  0.15947028     0.10650
C496        C  0.36927471  0.99914770  0.14251242    -0.06470
C497        C  0.36573616  0.03481764  0.16483231    -0.17710
C498        C  0.34383484  0.03642732  0.20116768     0.10680
S499        S  0.35742112  0.91575086  0.13504174    -0.32670
S500        S  0.33723685  0.08474777  0.22452336    -0.32680
H501        H  0.32771251  0.06970333  0.26288495     0.28690
H502        H  0.35696889  0.93070582  0.09557453     0.28690
H503        H  0.31706705  0.93827563  0.20677494     0.19280
H504        H  0.37976915  0.06191503  0.15355319     0.19290
C505        C  0.00177598  0.67468168  0.21716796    -0.06550
C506        C  0.03685057  0.65450260  0.20485809    -0.17670
C507        C  0.03831226  0.63222059  0.16880631     0.10650
C508        C  0.00400891  0.62957864  0.14387036    -0.06470
C509        C  0.96803840  0.64648215  0.15796804    -0.17710
C510        C  0.96644999  0.66822582  0.19425606     0.10680
S511        S  0.08554271  0.60926908  0.15531429    -0.32670
S512        S  0.91954431  0.69211954  0.20716971    -0.32680
H513        H  0.92892550  0.69846662  0.24786431     0.28690
H514        H  0.08032660  0.61166923  0.11346406     0.28690
H515        H  0.06448843  0.65973274  0.22107538     0.19280
H516        H  0.94087155  0.64271871  0.14058347     0.19290
C517        C  0.67531488  0.99735218  0.21432778    -0.06550
C518        C  0.65316784  0.96351744  0.20218421    -0.17670
C519        C  0.63134795  0.96302386  0.16599754     0.10650
C520        C  0.62982621  0.99752759  0.14120475    -0.06470
C521        C  0.64851573  0.03257225  0.15522487    -0.17710
C522        C  0.67083214  0.03285275  0.19122473     0.10680
S523        S  0.60801431  0.91636536  0.15177093    -0.32670
S524        S  0.69668898  0.07843137  0.20424827    -0.32680
H525        H  0.70114018  0.06896260  0.24516501     0.28690
H526        H  0.61217088  0.92190440  0.11004417     0.28690
H527        H  0.65700986  0.93561211  0.21838173     0.19280
H528        H  0.64578948  0.05996844  0.13803608     0.19290
C529        C  0.78035916  0.99670892  0.67068909    -0.06550
C530        C  0.79613170  0.03341144  0.65675494    -0.17670
C531        C  0.83363454  0.03564328  0.63692628     0.10650
C532        C  0.85623030  0.00039155  0.62956109    -0.06470
C533        C  0.83852467  0.96342407  0.63943617    -0.17710
C534        C  0.80113064  0.96125595  0.65942467     0.10680
S535        S  0.85162336  0.08472795  0.62288496    -0.32670
S536        S  0.78348652  0.91246466  0.67460689    -0.32680
H537        H  0.74361917  0.92442782  0.68197549     0.28690
H538        H  0.89274255  0.07535024  0.62330654     0.28690
H539        H  0.78151572  0.06106712  0.66571909     0.19280
H540        H  0.85399809  0.93590955  0.63156631     0.19290
C541        C  0.98926910  0.21418049  0.67838910    -0.06550
C542        C  0.02161453  0.20640488  0.65214410    -0.17670
C543        C  0.02458260  0.17026913  0.63057999     0.10650
C544        C  0.99352782  0.14130720  0.63289524    -0.06470
C545        C  0.95933782  0.15056470  0.65605598    -0.17710
C546        C  0.95693526  0.18645411  0.67855596     0.10680
S547        S  0.07053914  0.16143359  0.60295692    -0.32670
S548        S  0.91331597  0.19397319  0.70989114    -0.32680
H549        H  0.91793024  0.23572874  0.71318269     0.28690
H550        H  0.07123845  0.11975557  0.60930549     0.28690
H551        H  0.04739885  0.22623698  0.65257765     0.19280
H552        H  0.93436369  0.12979403  0.65668999     0.19290
C553        C  0.13691782  0.99971878  0.63389571    -0.06550
C554        C  0.14476092  0.03039156  0.66181821    -0.17670
C555        C  0.18080140  0.03115987  0.68423275     0.10650
C556        C  0.21006651  0.00044575  0.67946127    -0.06470
C557        C  0.20346719  0.97198710  0.64903060    -0.17710
C558        C  0.16744091  0.97060251  0.62730230     0.10680
S559        S  0.18722469  0.07136686  0.71973799    -0.32670
S560        S  0.16151187  0.92863944  0.59349057    -0.32680
H561        H  0.11940106  0.92701470  0.59497252     0.28690
H562        H  0.22927639  0.07193795  0.71669919     0.28690
H563        H  0.12300726  0.05423294  0.66582096     0.19280
H564        H  0.22460457  0.94748729  0.64557540     0.19290
C565        C  0.00534634  0.86346660  0.63388913    -0.06320
C566        C  0.98395931  0.82857051  0.62291320    -0.17670
C567        C  0.98287687  0.79422151  0.64733449     0.10650
C568        C  0.00365988  0.79361443  0.68412201    -0.06470
C569        C  0.02776918  0.82711513  0.69363410    -0.17710
C570        C  0.02872911  0.86181748  0.66928823     0.10680
S571        S  0.95150322  0.75308640  0.63176207    -0.32670
S572        S  0.05966293  0.90295081  0.68567130    -0.32680
H573        H  0.07062560  0.91550901  0.64686737     0.28690
H574        H  0.97089696  0.72384099  0.65509387     0.28690
H575        H  0.96654494  0.82843651  0.59548755     0.19280
H576        H  0.04368365  0.82744424  0.72195567     0.19290
C577        C  0.14139305  0.00465718  0.37469179    -0.06550
C578        C  0.15757692  0.04238917  0.36516500    -0.17670
C579        C  0.19389981  0.04620797  0.34370638     0.10650
C580        C  0.21404840  0.01178400  0.32898989    -0.06470
C581        C  0.20000640  0.97414959  0.34183826    -0.17710
C582        C  0.16493279  0.97026124  0.36549458     0.10680
S583        S  0.21159650  0.09598393  0.33236270    -0.32670
S584        S  0.15300444  0.92044008  0.38299475    -0.32680
H585        H  0.11609979  0.92864057  0.40163676     0.28690
H586        H  0.25101471  0.08428493  0.32236229     0.28690
H587        H  0.14198380  0.06924621  0.37491872     0.19280
H588        H  0.21483721  0.94731565  0.33090441     0.19290
C589        C  0.00066651  0.86314114  0.37136652    -0.06550
C590        C  0.97217511  0.83193704  0.37510845    -0.17670
C591        C  0.97455720  0.79672884  0.35144801     0.10650
C592        C  0.00784333  0.79043820  0.32559078    -0.06470
C593        C  0.03892683  0.81936558  0.32662104    -0.17710
C594        C  0.03378438  0.85659127  0.34570554     0.10680
S595        S  0.93303401  0.76230124  0.35338361    -0.32670
S596        S  0.06839567  0.89584795  0.33290748    -0.32680
H597        H  0.03802317  0.92293888  0.32192208     0.28690
H598        H  0.95624681  0.72813141  0.34517930     0.28690
H599        H  0.94699304  0.83569262  0.39554443     0.19280
H600        H  0.06423955  0.81596923  0.30624437     0.19290
C601        C  0.79112445  0.99251079  0.32172906    -0.06550
C602        C  0.80747585  0.03016371  0.33167644    -0.17670
C603        C  0.84254126  0.03372147  0.35522059     0.10650
C604        C  0.86276042  0.99892834  0.36887493    -0.06470
C605        C  0.84479685  0.96159147  0.36142691    -0.17710
C606        C  0.80951830  0.95808547  0.33858612     0.10680
S607        S  0.85999957  0.08358150  0.36657902    -0.32670
S608        S  0.79125326  0.90822081  0.32844281    -0.32680
H609        H  0.75197572  0.91999756  0.31857926     0.28690
H610        H  0.90068215  0.07368020  0.37135494     0.28690
H611        H  0.79470904  0.05688899  0.31838289     0.19280
H612        H  0.85843737  0.93472933  0.37355225     0.19290
C613        C  0.00480927  0.37095608  0.14313821    -0.06550
C614        C  0.04063312  0.37111053  0.16546836    -0.17670
C615        C  0.04402818  0.35034548  0.20219250     0.10650
C616        C  0.01101685  0.32864903  0.21794464    -0.06470
C617        C  0.97389578  0.33288992  0.19816086    -0.17710
C618        C  0.97074054  0.35262640  0.16081763     0.10680
S619        S  0.09249440  0.34879890  0.22586457    -0.32670
S620        S  0.92245405  0.35250857  0.13698929    -0.32680
H621        H  0.93721849  0.35098100  0.09738283     0.28690
H622        H  0.07820537  0.33523010  0.26335450     0.28690
H623        H  0.06648362  0.38723638  0.15391763     0.19280
H624        H  0.94826743  0.31598813  0.20908085     0.19290
C625        C  0.01592936  0.20980226  0.32203853    -0.06550
C626        C  0.98017529  0.20435354  0.34390668    -0.17670
C627        C  0.97485563  0.17091605  0.36954284     0.10650
C628        C  0.00495866  0.14091222  0.37192961    -0.06470
C629        C  0.04152615  0.14761631  0.35211407    -0.17710
C630        C  0.04763559  0.18191602  0.32818979     0.10680
S631        S  0.92856814  0.16566711  0.39749885    -0.32670
S632        S  0.09513464  0.18831258  0.30229411    -0.32680
H633        H  0.11323495  0.15270381  0.31576572     0.28690
H634        H  0.91306415  0.20381178  0.38844952     0.28690
H635        H  0.95542383  0.22469548  0.33870891     0.19280
H636        H  0.06551926  0.12604554  0.35578460     0.19290
C637        C  0.81017621  0.81516489  0.99072929    -0.06550
C638        C  0.82148198  0.83233340  0.95425892    -0.17670
C639        C  0.84979862  0.86249478  0.95362471     0.10650
C640        C  0.86647761  0.87489704  0.99029569    -0.06470
C641        C  0.85364115  0.85904322  0.02685401    -0.17710
C642        C  0.82561241  0.82870907  0.02760230     0.10680
S643        S  0.86186424  0.88417932  0.90550615    -0.32670
S644        S  0.81179141  0.80840078  0.07617549    -0.32680
H645        H  0.77391572  0.79328906  0.06598553     0.28690
H646        H  0.89713253  0.90450629  0.91609489     0.28690
H647        H  0.80833756  0.82197741  0.92634549     0.19280
H648        H  0.86522079  0.87065157  0.05484351     0.19290
C649        C  0.87134527  0.13048600  0.99354983    -0.06550
C650        C  0.84481848  0.12833374  0.96123601    -0.17670
C651        C  0.81688304  0.15815096  0.95518334     0.10650
C652        C  0.81457552  0.18928693  0.98344557    -0.06470
C653        C  0.83998773  0.19058183  0.01676083    -0.17710
C654        C  0.86847028  0.16114799  0.02232077     0.10680
S655        S  0.78569065  0.15510534  0.91104610    -0.32670
S656        S  0.89737897  0.16333301  0.06791031    -0.32680
H657        H  0.91401113  0.12475013  0.06667193     0.28690
H658        H  0.78004998  0.19664429  0.90663829     0.28690
H659        H  0.84645307  0.10361561  0.94029048     0.19280
H660        H  0.83670440  0.21405859  0.03914266     0.19290
C661        C  0.12701028  0.86750886  0.01025359    -0.06550
C662        C  0.14499600  0.85264164  0.97554249    -0.17670
C663        C  0.17399619  0.82349681  0.97826200     0.10650
C664        C  0.18537508  0.81002922  0.01674037    -0.06470
C665        C  0.16702091  0.82457748  0.05158748    -0.17710
C666        C  0.13766159  0.85381583  0.04874951     0.10680
S667        S  0.19549279  0.80558878  0.93162548    -0.32670
S668        S  0.11549923  0.87213733  0.09492232    -0.32680
H669        H  0.09970450  0.90823362  0.08025692     0.28690
H670        H  0.20100002  0.76573107  0.94363807     0.28690
H671        H  0.13618162  0.86369579  0.94620684     0.19280
H672        H  0.17613301  0.81365187  0.08084127     0.19290
C673        C  0.18821422  0.18576208  0.00207006    -0.06550
C674        C  0.18246035  0.16992512  0.96362743    -0.17670
C675        C  0.15287449  0.14169582  0.95742557     0.10650
C676        C  0.13015832  0.12915497  0.99063686    -0.06470
C677        C  0.13490136  0.14613957  0.02869827    -0.17710
C678        C  0.16462618  0.17401907  0.03506773     0.10680
S679        S  0.14436289  0.12429190  0.90689050    -0.32670
S680        S  0.17107881  0.19318106  0.08545392    -0.32680
H681        H  0.21249049  0.20077429  0.08232709     0.28690
H682        H  0.10290559  0.11757836  0.91155559     0.28690
H683        H  0.20045826  0.18033166  0.93843318     0.19280
H684        H  0.11594017  0.13694029  0.05367447     0.19290
C685        C  0.87643264  0.00339773  0.85967760    -0.06550
C686        C  0.86608114  0.96689962  0.84232744    -0.17670
C687        C  0.83292166  0.96450511  0.81789232     0.10650
C688        C  0.81135748  0.99984352  0.81020519    -0.06470
C689        C  0.82326918  0.03685771  0.82559210    -0.17710
C690        C  0.85665354  0.03906978  0.84979707     0.10680
S691        S  0.82008257  0.91615604  0.79708081    -0.32670
S692        S  0.87450090  0.08785803  0.86434793    -0.32680
H693        H  0.91526069  0.07711350  0.86590437     0.28690
H694        H  0.77866621  0.92319793  0.79347473     0.28690
H695        H  0.88355756  0.94027677  0.84837710     0.19280
H696        H  0.80753179  0.06406276  0.81729927     0.19290
C697        C  0.01096290  0.12921344  0.86149318    -0.06550
C698        C  0.03967614  0.12352479  0.83124523    -0.17670
C699        C  0.05242664  0.15523238  0.80753645     0.10650
C700        C  0.03375810  0.19276706  0.81244344    -0.06470
C701        C  0.00477917  0.19829477  0.84285512    -0.17710
C702        C  0.99281029  0.16692355  0.86709082     0.10680
S703        S  0.09204980  0.14597757  0.77142987    -0.32670
S704        S  0.95272810  0.17677812  0.90273912    -0.32680
H705        H  0.93759428  0.13751759  0.90372683     0.28690
H706        H  0.10347349  0.18633712  0.76711894     0.28690
H707        H  0.05307959  0.09448680  0.82698624     0.19280
H708        H  0.98893597  0.22649066  0.84592258     0.19290
C709        C  0.18799439  0.95230092  0.80408389    -0.06550
C710        C  0.16677760  0.98853484  0.80142623    -0.17670
C711        C  0.14058728  0.00036311  0.83115898     0.10650
C712        C  0.13393973  0.97470859  0.86373575    -0.06470
C713        C  0.15454720  0.93814651  0.86677385    -0.17710
C714        C  0.18199989  0.92672803  0.83711429     0.10680
S715        S  0.11951421  0.04979850  0.82671208    -0.32670
S716        S  0.20881182  0.88025566  0.84325966    -0.32680
H717        H  0.21900151  0.87517733  0.80248870     0.28690
H718        H  0.10871031  0.05518857  0.86717013     0.28690
H719        H  0.17283033  0.00932974  0.77721750     0.19280
H720        H  0.14903860  0.91848375  0.89214280     0.19290
C721        C  0.95007142  0.81582518  0.80655729    -0.06550
C722        C  0.97876846  0.84556938  0.79746041    -0.17670
C723        C  0.99432644  0.87010195  0.82692196     0.10650
C724        C  0.97915292  0.86697858  0.86623915    -0.06470
C725        C  0.94894990  0.83906907  0.87535208    -0.17710
C726        C  0.93352139  0.81407744  0.84564393     0.10680
S727        S  0.03598382  0.90211503  0.81299865    -0.32670
S728        S  0.89327920  0.78044759  0.85930409    -0.32680
H729        H  0.88067649  0.77297689  0.81970290     0.28690
H730        H  0.05575377  0.89932009  0.85019106     0.28690
H731        H  0.99252615  0.84731503  0.76804519     0.19280
H732        H  0.93665770  0.83737776  0.90554402     0.19290
C733        C  0.18402708  0.01245699  0.18740107    -0.06550
C734        C  0.18928743  0.03622212  0.15319065    -0.17670
C735        C  0.16419976  0.03200073  0.12057914     0.10650
C736        C  0.13242053  0.00417153  0.12301225    -0.06470
C737        C  0.12680763  0.98071585  0.15740847    -0.17710
C738        C  0.15274011  0.98407904  0.18965840     0.10680
S739        S  0.17461177  0.06326583  0.07755857    -0.32670
S740        S  0.14724863  0.94988606  0.23157572    -0.32680
H741        H  0.10851417  0.93629975  0.22192738     0.28690
H742        H  0.13439973  0.06978274  0.06756044     0.28690
H743        H  0.21364742  0.05775971  0.15170199     0.19280
H744        H  0.10256940  0.95908401  0.15846702     0.19290
C745        C  0.00075748  0.87362101  0.12757713    -0.06550
C746        C  0.03106552  0.87639838  0.15633185    -0.17670
C747        C  0.03618246  0.84601711  0.18402756     0.10650
C748        C  0.00915525  0.81362626  0.18361084    -0.06470
C749        C  0.97872617  0.81102016  0.15510667    -0.17710
C750        C  0.97410849  0.84095302  0.12704891     0.10680
S751        S  0.07795856  0.84967670  0.21818217    -0.32670
S752        S  0.93263727  0.83673038  0.09291689    -0.32680
H753        H  0.92483473  0.87816263  0.09206828     0.28690
H754        H  0.08312021  0.80817659  0.22341269     0.28690
H755        H  0.05178037  0.90146330  0.15611109     0.19280
H756        H  0.95758126  0.78628439  0.15575618     0.19290
C757        C  0.87140590  0.99453884  0.12414659    -0.06550
C758        C  0.87427779  0.95984977  0.14764238    -0.17670
C759        C  0.84434075  0.95048172  0.17512521     0.10650
C760        C  0.81178983  0.97693910  0.17926898    -0.06470
C761        C  0.80886269  0.01139497  0.15529230    -0.17710
C762        C  0.83854761  0.02055127  0.12769634     0.10680
S763        S  0.84909343  0.90471992  0.20361112    -0.32670
S764        S  0.83379015  0.06639734  0.09936689    -0.32680
H765        H  0.87521019  0.07374411  0.09661760     0.28690
H766        H  0.80781414  0.89940284  0.21095102     0.28690
H767        H  0.89946246  0.93955057  0.14379396     0.19280
H768        H  0.78417411  0.03223530  0.15942699     0.19290
C769        C  0.02066696  0.19233535  0.17815342    -0.06550
C770        C  0.04599889  0.15905677  0.18028628    -0.17670
C771        C  0.04438371  0.12966640  0.15113757     0.10650
C772        C  0.01738685  0.13434039  0.11907765    -0.06470
C773        C  0.99486367  0.16934521  0.11510677    -0.17710
C774        C  0.99470569  0.19772817  0.14527506     0.10680
S775        S  0.07820790  0.08796876  0.15604746    -0.32670
S776        S  0.95839172  0.23774374  0.14143216    -0.32680
H777        H  0.94873986  0.23856657  0.18265745     0.28690
H778        H  0.08440824  0.08412301  0.11449464     0.28690
H779        H  0.06664407  0.15573155  0.20516967     0.19280
H780        H  0.97554134  0.17346541  0.08951182     0.19290
loop_ 
_geom_bond_atom_site_label_1 
_geom_bond_atom_site_label_2 
_geom_bond_distance 
_geom_bond_site_symmetry_2 
_ccdc_geom_bond_type 
O1          Zr37   2.382   1_554  S
O1           C12   1.282       .  A
O2          Zr36   2.389   1_554  S
O2           C13   1.284   1_655  A
O3           Zr9   2.386   1_655  S
O3           C14   1.283       .  A
O4           Zr9   2.394       .  S
O4           C15   1.285       .  A
O5          Zr39   2.390   1_554  S
O5           C15   1.283   1_565  A
O6          Zr38   2.402   1_554  S
O6           C14   1.286       .  A
O7           Zr9   2.384   1_565  S
O7           C13   1.282       .  A
O8           Zr9   2.403       .  S
O8           C12   1.286       .  A
Zr9          O10   2.310   1_545  S
Zr9          O11   2.320   1_455  S
Zr9          O19   2.307       .  S
Zr9          O17   2.325   1_445  S
O10         Zr36   2.315   1_454  S
O10         Zr39   2.317   1_554  S
O11         Zr37   2.308   1_654  S
O11         Zr38   2.320   1_554  S
C12         C772   1.438       .  S
C13         C745   1.431       .  S
C14         C757   1.428   1_545  S
C15         C736   1.438       .  S
H16          O17   0.965       .  S
O17         Zr36   2.306   1_554  S
O17         Zr38   2.316   1_564  S
H18          O19   0.964       .  S
O19         Zr37   2.311   1_554  S
O19         Zr39   2.314   1_544  S
O20         Zr36   2.399       .  S
O20          C43   1.285       .  A
O21         Zr37   2.371       .  S
O21          C44   1.280       .  A
O22         Zr38   2.369   1_565  S
O22          C45   1.278       .  A
O23         Zr39   2.381   1_554  S
O23          C46   1.281       .  A
O24         Zr39   2.409   1_545  S
O24          C47   1.286       .  A
O25         Zr38   2.361       .  S
O25          C48   1.278       .  A
O26         Zr40   2.361   1_645  S
O26          C49   1.277       .  A
O27         Zr40   2.406       .  S
O27          C50   1.287       .  A
O28         Zr38   2.411       .  S
O28          C49   1.287       .  A
O29         Zr39   2.392       .  S
O29          C50   1.283       .  A
O30         Zr36   2.398       .  S
O30          C45   1.284       .  A
O31         Zr37   2.403   1_655  S
O31          C48   1.285       .  A
O32         Zr37   2.353       .  S
O32          C47   1.276       .  A
O33         Zr36   2.383   1_454  S
O33          C46   1.281       .  A
O34         Zr40   2.398   1_655  S
O34          C43   1.285       .  A
O35         Zr40   2.410   1_545  S
O35          C44   1.288       .  A
Zr36         O42   2.307       .  S
Zr36         O54   2.319   1_655  S
Zr37         O41   2.332       .  S
Zr37         O52   2.294   1_455  S
Zr38         O42   2.309   1_545  S
Zr38         O52   2.312       .  S
Zr39         O41   2.315   1_565  S
Zr39         O54   2.323       .  S
Zr40         O41   2.306   1_565  S
Zr40         O42   2.319   1_455  S
Zr40         O54   2.317       .  S
Zr40         O52   2.331   1_465  S
C43         C724   1.447       .  S
C44         C697   1.442       .  S
C45         C640   1.416       .  S
C46         C661   1.414       .  S
C47         C676   1.412       .  S
C48         C649   1.424       .  S
C49         C685   1.415       .  S
C50         C712   1.434       .  S
H51          O52   0.965       .  S
H53          O54   0.966       .  S
C55         C625   1.498       .  S
C55          C56   1.436       .  A
C55          C60   1.390       .  A
C56          C57   1.436       .  A
C56          H61   1.082       .  S
C57         C616   1.492       .  S
C57          C58   1.388       .  A
C58          C59   1.374       .  A
C58          H62   1.087       .  S
C59         C769   1.440       .  S
C59          C60   1.379       .  A
C60          H63   1.086       .  S
O64         Zr76   2.414       .  S
O64          C66   1.282   1_655  A
O65        Zr102   2.504       .  S
O65          C66   1.304       .  A
C66         C628   1.494       .  S
O67         Zr79   2.404       .  S
O67          C69   1.281       .  A
O68        Zr103   2.522   1_455  S
O68          C69   1.306       .  A
C69         C553   1.502   1_545  S
O70         Zr79   2.405       .  S
O70          C72   1.280       .  A
O71        Zr102   2.513       .  S
O71          C72   1.305       .  A
C72         C577   1.492       .  S
O73         Zr76   2.409       .  S
O73          C75   1.282       .  A
O74        Zr103   2.506       .  S
O74          C75   1.304       .  A
C75         C544   1.494       .  S
Zr76         O82   2.368   1_655  S
Zr76         O83   2.370   1_655  S
Zr76        O106   2.364       .  S
Zr76        O108   2.367       .  S
Zr76         O77   2.434   1_655  S
Zr76         O78   2.436       .  S
O77         H120   0.990       .  S
O78         H119   0.990       .  S
O78         H123   0.990       .  S
Zr79         O83   2.369       .  S
Zr79         O82   2.364       .  S
Zr79        O107   2.368   1_545  S
Zr79        O109   2.367   1_545  S
Zr79         O80   2.436       .  S
Zr79         O81   2.435   1_545  S
O80         H121   0.990       .  S
O80         H124   0.990       .  S
O81         H114   0.990       .  S
O82        Zr102   2.395       .  S
O83        Zr103   2.402   1_455  S
O83         H110   0.966       .  S
O84         Zr96   2.405       .  S
O84          C86   1.280       .  A
O85        Zr103   2.515       .  S
O85          C86   1.306       .  A
C86         C532   1.492       .  S
O87         Zr99   2.421   1_655  S
O87          C89   1.284       .  A
O88        Zr102   2.502   1_565  S
O88          C89   1.304   1_455  A
C89         C589   1.501   1_655  S
O90         Zr99   2.419       .  S
O90          C92   1.284       .  A
O91        Zr103   2.505   1_465  S
O91          C92   1.304       .  A
C92         C565   1.507       .  S
O93         Zr96   2.418       .  S
O93          C95   1.283       .  A
O94        Zr102   2.510   1_655  S
O94          C95   1.305       .  A
C95         C604   1.497   1_545  S
Zr96        O104   2.375   1_545  S
Zr96        O105   2.364   1_545  S
Zr96        O108   2.366       .  S
Zr96        O106   2.369       .  S
Zr96         O97   2.436   1_545  S
Zr96         O98   2.435       .  S
O97         H117   0.990       .  S
O97         H122   0.990       .  S
O98         H118   0.990       .  S
Zr99        O105   2.368   1_455  S
Zr99        O104   2.367   1_455  S
Zr99        O109   2.368       .  S
Zr99        O107   2.367       .  S
Zr99        O100   2.435   1_455  S
Zr99        O101   2.435       .  S
O100        H116   0.990       .  S
O101        H115   0.990       .  S
O101        H125   0.990       .  S
Zr102       O105   2.398   1_445  S
Zr102       O107   2.398   1_545  S
Zr102       O108   2.401   1_455  S
Zr103       O104   2.407   1_545  S
Zr103       O106   2.401       .  S
Zr103       O109   2.399   1_645  S
O104        H112   0.966       .  S
O107        H111   0.965       .  S
O108        H113   0.966       .  S
C126        C601   1.499       .  S
C126        C127   1.392       .  A
C126        C131   1.437       .  A
C127        C128   1.381       .  A
C127        H132   1.086       .  S
C128        C760   1.442       .  S
C128        C129   1.376       .  A
C129        C130   1.389       .  A
C129        H133   1.087       .  S
C130        C517   1.497       .  S
C130        C131   1.437       .  A
C131        H134   1.082   1_565  S
C135        C505   1.492       .  S
C135        C136   1.388       .  A
C135        C140   1.437       .  A
C136        C137   1.372       .  A
C136        H141   1.087       .  S
C137        C748   1.433       .  S
C137        C138   1.374       .  A
C138        C139   1.392       .  A
C138        H142   1.087   1_455  S
C139        C592   1.504       .  S
C139        C140   1.438       .  A
C140        H143   1.081       .  S
C144        C493   1.492       .  S
C144        C145   1.388       .  A
C144        C149   1.432       .  A
C145        C146   1.379       .  A
C145        H150   1.087       .  S
C146        C733   1.447       .  S
C146        C147   1.378       .  A
C147        C148   1.392       .  A
C147        H151   1.086       .  S
C148        C580   1.491       .  S
C148        C149   1.433       .  A
C149        H152   1.082       .  S
C153        C568   1.496   1_655  S
C153        C154   1.398       .  A
C153        C158   1.429   1_655  A
C154        C155   1.392       .  A
C154        H159   1.086       .  S
C155        C721   1.472       .  S
C155        C156   1.391       .  A
C156        C157   1.394       .  A
C156        H160   1.084       .  S
C157        C481   1.494   1_655  S
C157        C158   1.427   1_655  A
C158        H161   1.082       .  S
C162        C556   1.503   1_565  S
C162        C163   1.397       .  A
C162        C167   1.434   1_565  A
C163        C164   1.385       .  A
C163        H168   1.087       .  S
C164        C709   1.454       .  S
C164        C165   1.385       .  A
C165        C166   1.396       .  A
C165        H169   1.086       .  S
C166        C469   1.499   1_565  S
C166        C167   1.434   1_565  A
C167        H170   1.082       .  S
C171        C541   1.493   1_455  S
C171        C172   1.389       .  A
C171        C176   1.430   1_455  A
C172        C173   1.384       .  A
C172        H177   1.085       .  S
C173        C700   1.456       .  S
C173        C174   1.384       .  A
C174        C175   1.394       .  A
C174        H178   1.087       .  S
C175        C460   1.494   1_455  S
C175        C176   1.432   1_455  A
C176        H179   1.082       .  S
C180        C529   1.493       .  S
C180        C181   1.385       .  A
C180        C185   1.438       .  A
C181        C182   1.369   1_565  A
C181        H186   1.088       .  S
C182        C688   1.420   1_545  S
C182        C183   1.369       .  A
C183        C184   1.389   1_545  A
C183        H187   1.087       .  S
C184        C445   1.492       .  S
C184        C185   1.439       .  A
C185        H188   1.082       .  S
O189       Zr201   2.414       .  S
O189        C191   1.281       .  A
O190       Zr227   2.519       .  S
O190        C191   1.307       .  A
C191        C397   1.499       .  S
O192       Zr204   2.414       .  S
O192        C194   1.282       .  A
O193       Zr228   2.505   1_565  S
O193        C194   1.304       .  A
C194        C496   1.494       .  S
O195       Zr204   2.413       .  S
O195        C197   1.282       .  A
O196       Zr227   2.515       .  S
O196        C197   1.306   1_545  A
C197        C520   1.497       .  S
O198       Zr201   2.408       .  S
O198        C200   1.281       .  A
O199       Zr228   2.519       .  S
O199        C200   1.307       .  A
C200        C436   1.496       .  S
Zr201       O207   2.368       .  S
Zr201       O208   2.370       .  S
Zr201       O231   2.370   1_554  S
Zr201       O233   2.366   1_554  S
Zr201       O202   2.434       .  S
Zr201       O203   2.437   1_554  S
O202        H245   0.990       .  S
O203        H244   0.990       .  S
O203        H248   0.990       .  S
Zr204       O208   2.367   1_565  S
Zr204       O207   2.370   1_565  S
Zr204       O232   2.368       .  S
Zr204       O234   2.371       .  S
Zr204       O205   2.436   1_565  S
Zr204       O206   2.435       .  S
O205        H246   0.990       .  S
O205        H249   0.990       .  S
O206        H239   0.990       .  S
O207       Zr227   2.400       .  S
O208       Zr228   2.403       .  S
O208        H235   0.966       .  S
O209       Zr221   2.425       .  S
O209        C211   1.285       .  A
O210       Zr228   2.504   1_556  S
O210        C211   1.303       .  A
C211        C472   1.500       .  S
O212       Zr224   2.409   1_556  S
O212        C214   1.281   1_556  A
O213       Zr227   2.522   1_565  S
O213        C214   1.307       .  A
C214        C421   1.499   1_554  S
O215       Zr224   2.406       .  S
O215        C217   1.281       .  A
O216       Zr228   2.525   1_565  S
O216        C217   1.308       .  A
C217        C412   1.500   1_554  S
O218       Zr221   2.405       .  S
O218        C220   1.280       .  A
O219       Zr227   2.512   1_566  S
O219        C220   1.306   1_565  A
C220        C448   1.491   1_545  S
Zr221       O229   2.364   1_545  S
Zr221       O230   2.371   1_545  S
Zr221       O233   2.369       .  S
Zr221       O231   2.364       .  S
Zr221       O222   2.435   1_545  S
Zr221       O223   2.434       .  S
O222        H242   0.989       .  S
O222        H247   0.990       .  S
O223        H243   0.990       .  S
Zr224       O230   2.365   1_554  S
Zr224       O229   2.369   1_554  S
Zr224       O234   2.370       .  S
Zr224       O232   2.364       .  S
Zr224       O225   2.435   1_554  S
Zr224       O226   2.434       .  S
O225        H241   0.990       .  S
O226        H240   0.989       .  S
O226        H250   0.990       .  S
Zr227       O230   2.399   1_544  S
Zr227       O232   2.401   1_545  S
Zr227       O233   2.404   1_554  S
Zr228       O229   2.402   1_544  S
Zr228       O231   2.399   1_554  S
Zr228       O234   2.402   1_545  S
O229        H237   0.965       .  S
O232        H236   0.966       .  S
O233        H238   0.966       .  S
O251       Zr263   2.410       .  S
O251        C253   1.281       .  A
O252       Zr289   2.523   1_455  S
O252        C253   1.308       .  A
C253        C385   1.500       .  S
O254       Zr266   2.407       .  S
O254        C256   1.280       .  A
O255       Zr290   2.508       .  S
O255        C256   1.304       .  A
C256        C508   1.491       .  S
O257       Zr266   2.405       .  S
O257        C259   1.280       .  A
O258       Zr289   2.517   1_455  S
O258        C259   1.307       .  A
C259        C613   1.497       .  S
O260       Zr263   2.409       .  S
O260        C262   1.281   1_554  A
O261       Zr290   2.517       .  S
O261        C262   1.306   1_554  A
C262        C373   1.497       .  S
Zr263       O269   2.365       .  S
Zr263       O270   2.369       .  S
Zr263       O293   2.364   1_554  S
Zr263       O295   2.368   1_554  S
Zr263       O264   2.435       .  S
Zr263       O265   2.437   1_554  S
O264        H307   0.990       .  S
O265        H306   0.990       .  S
O265        H310   0.990       .  S
Zr266       O270   2.369       .  S
Zr266       O269   2.365       .  S
Zr266       O294   2.371   1_455  S
Zr266       O296   2.368   1_455  S
Zr266       O267   2.437       .  S
Zr266       O268   2.436   1_455  S
O267        H308   0.990       .  S
O267        H311   0.990       .  S
O268        H301   0.990       .  S
O269       Zr289   2.397   1_455  S
O270       Zr290   2.403       .  S
O270        H297   0.966       .  S
O271       Zr283   2.429   1_455  S
O271        C273   1.286       .  A
O272       Zr290   2.501   1_556  S
O272        C273   1.303       .  A
C273        C484   1.505       .  S
O274       Zr286   2.408       .  S
O274        C276   1.280       .  A
O275       Zr289   2.526       .  S
O275        C276   1.308       .  A
C276        C361   1.500   1_554  S
O277       Zr286   2.407       .  S
O277        C279   1.280       .  A
O278       Zr290   2.524   1_655  S
O278        C279   1.308       .  A
C279        C349   1.499       .  S
O280       Zr283   2.411       .  S
O280        C282   1.282       .  A
O281       Zr289   2.512   1_556  S
O281        C282   1.305       .  A
C282        C457   1.500       .  S
Zr283       O291   2.367       .  S
Zr283       O292   2.367       .  S
Zr283       O295   2.372   1_655  S
Zr283       O293   2.363   1_655  S
Zr283       O284   2.433       .  S
Zr283       O285   2.434   1_655  S
O284        H304   0.989       .  S
O284        H309   0.990       .  S
O285        H305   0.990       .  S
Zr286       O292   2.365   1_554  S
Zr286       O291   2.371   1_554  S
Zr286       O296   2.367       .  S
Zr286       O294   2.369       .  S
Zr286       O287   2.435   1_554  S
Zr286       O288   2.435       .  S
O287        H303   0.990       .  S
O288        H302   0.990       .  S
O288        H312   0.990       .  S
Zr289       O292   2.397   1_554  S
Zr289       O294   2.402       .  S
Zr289       O295   2.407   1_654  S
Zr290       O291   2.403   1_454  S
Zr290       O293   2.398   1_554  S
Zr290       O296   2.399   1_455  S
O291        H299   0.966       .  S
O294        H298   0.966       .  S
O295        H300   0.966       .  S
C313        C433   1.497       .  S
C313        C314   1.386       .  A
C313        C318   1.442       .  A
C314        C315   1.369       .  A
C314        H319   1.088       .  S
C315        C673   1.420       .  S
C315        C316   1.371       .  A
C316        C317   1.387       .  A
C316        H320   1.087       .  S
C317        C388   1.498       .  S
C317        C318   1.442       .  A
C318        H321   1.082       .  S
C322        C409   1.497   1_554  S
C322        C323   1.389       .  A
C322        C327   1.438   1_554  A
C323        C324   1.375       .  A
C323        H328   1.087       .  S
C324        C664   1.429       .  S
C324        C325   1.373       .  A
C325        C326   1.389       .  A
C325        H329   1.087       .  S
C326        C376   1.496   1_554  S
C326        C327   1.439   1_554  A
C327        H330   1.082       .  S
C331        C364   1.501       .  S
C331        C332   1.441       .  A
C331        C336   1.387       .  A
C332        C333   1.442       .  A
C332        H337   1.082       .  S
C333        C400   1.500       .  S
C333        C334   1.387       .  A
C334        C335   1.374       .  A
C334        H338   1.087       .  S
C335        C652   1.431       .  S
C335        C336   1.372       .  A
C336        H339   1.087       .  S
C340        C352   1.499       .  S
C340        C341   1.387   1_554  A
C340        C345   1.443       .  A
C341        C342   1.371       .  A
C341        H346   1.087       .  S
C342        C637   1.421       .  S
C342        C343   1.370       .  A
C343        C344   1.386       .  A
C343        H347   1.088       .  S
C344        C424   1.500   1_556  S
C344        C345   1.442   1_556  A
C345        H348   1.082       .  S
C349        C350   1.406       .  A
C349        C354   1.418   1_554  A
C350        C351   1.414       .  A
C350        H359   1.084       .  S
C351        C352   1.421       .  A
C351        S355   1.802       .  S
C352        C353   1.409   1_554  A
C353        C354   1.411       .  A
C353        H360   1.084       .  S
C354        S356   1.803       .  S
S355        H358   1.406       .  S
S356        H357   1.406       .  S
C361        C362   1.405       .  A
C361        C366   1.423   1_556  A
C362        C363   1.410       .  A
C362        H371   1.084       .  S
C363        C364   1.422       .  A
C363        S367   1.803       .  S
C364        C365   1.406   1_556  A
C365        C366   1.415       .  A
C365        H372   1.084       .  S
C366        S368   1.805       .  S
S367        H370   1.407       .  S
S368        H369   1.401       .  S
C373        C374   1.407   1_556  A
C373        C378   1.417       .  A
C374        C375   1.408       .  A
C374        H383   1.084       .  S
C375        C376   1.416   1_554  A
C375        S379   1.802       .  S
C376        C377   1.412       .  A
C377        C378   1.414       .  A
C377        H384   1.084       .  S
C378        S380   1.804       .  S
S379        H382   1.407       .  S
S380        H381   1.404       .  S
C385        C386   1.406       .  A
C385        C390   1.417   1_554  A
C386        C387   1.413       .  A
C386        H395   1.084       .  S
C387        C388   1.421       .  A
C387        S391   1.802       .  S
C388        C389   1.410   1_554  A
C389        C390   1.413       .  A
C389        H396   1.084       .  S
C390        S392   1.802       .  S
S391        H394   1.407       .  S
S392        H393   1.406       .  S
C397        C398   1.407   1_554  A
C397        C402   1.417       .  A
C398        C399   1.411       .  A
C398        H407   1.084       .  S
C399        C400   1.419       .  A
C399        S403   1.802       .  S
C400        C401   1.412   1_556  A
C401        C402   1.415       .  A
C401        H408   1.084       .  S
C402        S404   1.803       .  S
S403        H406   1.406       .  S
S404        H405   1.405       .  S
C409        C410   1.404   1_556  A
C409        C414   1.421       .  A
C410        C411   1.410       .  A
C410        H419   1.084       .  S
C411        C412   1.424   1_554  A
C411        S415   1.805       .  S
C412        C413   1.405       .  A
C413        C414   1.413       .  A
C413        H420   1.084       .  S
C414        S416   1.800       .  S
S415        H418   1.402       .  S
S416        H417   1.407       .  S
C421        C422   1.406   1_556  A
C421        C426   1.418       .  A
C422        C423   1.414       .  A
C422        H431   1.084       .  S
C423        C424   1.420       .  A
C423        S427   1.801       .  S
C424        C425   1.411   1_554  A
C425        C426   1.412       .  A
C425        H432   1.084       .  S
C426        S428   1.804       .  S
S427        H430   1.406       .  S
S428        H429   1.406       .  S
C433        C434   1.411   1_554  A
C433        C438   1.420       .  A
C434        C435   1.413       .  A
C434        H443   1.084       .  S
C435        C436   1.417   1_556  A
C435        S439   1.805       .  S
C436        C437   1.405       .  A
C437        C438   1.412       .  A
C437        H444   1.084       .  S
C438        S440   1.802       .  S
S439        H442   1.406       .  S
S440        H441   1.407       .  S
C445        C446   1.409   1_565  A
C445        C450   1.419       .  A
C446        C447   1.410       .  A
C446        H455   1.084       .  S
C447        C448   1.416   1_545  A
C447        S451   1.804       .  S
C448        C449   1.405       .  A
C449        C450   1.410       .  A
C449        H456   1.083       .  S
C450        S452   1.803       .  S
S451        H454   1.406       .  S
S452        H453   1.406       .  S
C457        C458   1.405       .  A
C457        C462   1.423   1_655  A
C458        C459   1.413       .  A
C458        H467   1.084       .  S
C459        C460   1.422       .  A
C459        S463   1.802       .  S
C460        C461   1.403   1_655  A
C461        C462   1.406       .  A
C461        H468   1.084       .  S
C462        S464   1.805       .  S
S463        H466   1.405       .  S
S464        H465   1.403       .  S
C469        C470   1.406   1_545  A
C469        C474   1.420       .  A
C470        C471   1.404       .  A
C470        H479   1.084       .  S
C471        C472   1.418   1_565  A
C471        S475   1.803       .  S
C472        C473   1.407       .  A
C473        C474   1.416       .  A
C473        H480   1.083       .  S
C474        S476   1.800       .  S
S475        H478   1.407       .  S
S476        H477   1.404       .  S
C481        C482   1.401   1_455  A
C481        C486   1.420       .  A
C482        C483   1.405       .  A
C482        H491   1.084       .  S
C483        C484   1.423   1_655  A
C483        S487   1.801       .  S
C484        C485   1.406       .  A
C485        C486   1.413       .  A
C485        H492   1.082       .  S
C486        S488   1.802       .  S
S487        H490   1.405       .  S
S488        H489   1.406       .  S
C493        C494   1.411   1_545  A
C493        C498   1.416       .  A
C494        C495   1.410       .  A
C494        H503   1.084       .  S
C495        C496   1.414       .  A
C495        S499   1.798       .  S
C496        C497   1.406   1_565  A
C497        C498   1.409       .  A
C497        H504   1.084       .  S
C498        S500   1.802       .  S
S499        H502   1.405       .  S
S500        H501   1.406       .  S
C505        C506   1.407       .  A
C505        C510   1.422   1_455  A
C506        C507   1.411       .  A
C506        H515   1.084       .  S
C507        C508   1.418       .  A
C507        S511   1.804       .  S
C508        C509   1.402   1_455  A
C509        C510   1.408       .  A
C509        H516   1.084       .  S
C510        S512   1.803       .  S
S511        H514   1.406       .  S
S512        H513   1.407       .  S
C517        C518   1.409       .  A
C517        C522   1.421   1_565  A
C518        C519   1.410       .  A
C518        H527   1.084       .  S
C519        C520   1.418       .  A
C519        S523   1.804       .  S
C520        C521   1.405   1_565  A
C521        C522   1.413       .  A
C521        H528   1.083       .  S
C522        S524   1.801       .  S
S523        H526   1.406       .  S
S524        H525   1.406       .  S
C529        C530   1.410   1_565  A
C529        C534   1.419       .  A
C530        C531   1.411       .  A
C530        H539   1.084       .  S
C531        C532   1.417       .  A
C531        S535   1.805       .  S
C532        C533   1.405   1_545  A
C533        C534   1.410       .  A
C533        H540   1.084       .  S
C534        S536   1.802       .  S
S535        H538   1.405       .  S
S536        H537   1.407       .  S
C541        C542   1.407   1_655  A
C541        C546   1.420       .  A
C542        C543   1.405       .  A
C542        H551   1.084       .  S
C543        C544   1.417   1_455  A
C543        S547   1.805       .  S
C544        C545   1.405       .  A
C545        C546   1.413       .  A
C545        H552   1.083       .  S
C546        S548   1.800       .  S
S547        H550   1.407       .  S
S548        H549   1.406       .  S
C553        C554   1.407   1_565  A
C553        C558   1.422       .  A
C554        C555   1.417       .  A
C554        H563   1.084       .  S
C555        C556   1.422       .  A
C555        S559   1.800       .  S
C556        C557   1.405   1_545  A
C557        C558   1.405       .  A
C557        H564   1.084       .  S
C558        S560   1.806       .  S
S559        H562   1.404       .  S
S560        H561   1.404       .  S
C565        C566   1.414   1_455  A
C565        C570   1.416       .  A
C566        C567   1.406       .  A
C566        H575   1.084       .  S
C567        C568   1.409   1_655  A
C567        S571   1.802       .  S
C568        C569   1.413       .  A
C569        C570   1.414       .  A
C569        H576   1.084       .  S
C570        S572   1.802       .  S
S571        H574   1.407       .  S
S572        H573   1.403       .  S
C577        C578   1.405       .  A
C577        C582   1.422   1_545  A
C578        C579   1.407       .  A
C578        H587   1.084       .  S
C579        C580   1.416       .  A
C579        S583   1.802       .  S
C580        C581   1.406   1_545  A
C581        C582   1.411       .  A
C581        H588   1.084       .  S
C582        S584   1.805       .  S
S583        H586   1.408       .  S
S584        H585   1.400       .  S
C589        C590   1.414   1_455  A
C589        C594   1.408       .  A
C590        C591   1.415       .  A
C590        H599   1.084       .  S
C591        C592   1.415   1_655  A
C591        S595   1.799       .  S
C592        C593   1.416       .  A
C593        C594   1.404       .  A
C593        H600   1.084       .  S
C594        S596   1.795       .  S
S595        H598   1.403       .  S
S596        H597   1.407       .  S
C601        C602   1.409   1_565  A
C601        C606   1.419       .  A
C602        C603   1.415       .  A
C602        H611   1.084       .  S
C603        C604   1.418   1_545  A
C603        S607   1.803       .  S
C604        C605   1.404       .  A
C605        C606   1.408       .  A
C605        H612   1.084       .  S
C606        S608   1.803       .  S
S607        H610   1.405       .  S
S608        H609   1.407       .  S
C613        C614   1.409       .  A
C613        C618   1.414   1_455  A
C614        C615   1.410       .  A
C614        H623   1.084       .  S
C615        C616   1.415       .  A
C615        S619   1.801       .  S
C616        C617   1.411   1_455  A
C617        C618   1.411       .  A
C617        H624   1.084       .  S
C618        S620   1.797       .  S
S619        H622   1.407       .  S
S620        H621   1.404       .  S
C625        C626   1.404   1_455  A
C625        C630   1.423       .  A
C626        C627   1.415       .  A
C626        H635   1.083       .  S
C627        C628   1.419   1_655  A
C627        S631   1.804       .  S
C628        C629   1.400       .  A
C629        C630   1.408       .  A
C629        H636   1.083       .  S
C630        S632   1.810       .  S
S631        H634   1.407       .  S
S632        H633   1.407       .  S
C637        C638   1.392       .  A
C637        C642   1.407   1_556  A
C638        C639   1.379       .  A
C638        H647   1.085       .  S
C639        C640   1.405       .  A
C639        S643   1.800       .  S
C640        C641   1.391   1_556  A
C641        C642   1.377       .  A
C641        H648   1.081       .  S
C642        S644   1.809       .  S
S643        H646   1.403       .  S
S644        H645   1.402       .  S
C649        C650   1.397       .  A
C649        C654   1.403   1_556  A
C650        C651   1.378       .  A
C650        H659   1.080       .  S
C651        C652   1.402       .  A
C651        S655   1.806       .  S
C652        C653   1.399   1_556  A
C653        C654   1.379       .  A
C653        H660   1.085       .  S
C654        S656   1.802       .  S
S655        H658   1.406       .  S
S656        H657   1.402       .  S
C661        C662   1.389   1_554  A
C661        C666   1.407       .  A
C662        C663   1.374       .  A
C662        H671   1.085       .  S
C663        C664   1.411   1_556  A
C663        S667   1.806       .  S
C664        C665   1.394       .  A
C665        C666   1.385       .  A
C665        H672   1.084       .  S
C666        S668   1.806       .  S
S667        H670   1.401       .  S
S668        H669   1.403       .  S
C673        C674   1.397   1_554  A
C673        C678   1.402       .  A
C674        C675   1.379       .  A
C674        H683   1.085       .  S
C675        C676   1.399       .  A
C675        S679   1.802       .  S
C676        C677   1.396   1_556  A
C677        C678   1.376       .  A
C677        H684   1.085       .  S
C678        S680   1.807       .  S
S679        H682   1.407       .  S
S680        H681   1.406       .  S
C685        C686   1.391   1_545  A
C685        C690   1.401       .  A
C686        C687   1.377       .  A
C686        H695   1.082       .  S
C687        C688   1.405       .  A
C687        S691   1.807       .  S
C688        C689   1.395   1_565  A
C689        C690   1.379       .  A
C689        H696   1.085       .  S
C690        S692   1.800       .  S
S691        H694   1.405       .  S
S692        H693   1.405       .  S
C697        C698   1.397       .  A
C697        C702   1.408   1_455  A
C698        C699   1.385       .  A
C698        H707   1.076       .  S
C699        C700   1.407       .  A
C699        S703   1.805       .  S
C700        C701   1.406       .  A
C701        C702   1.379   1_455  A
C701        H708   1.083   1_455  S
C702        S704   1.810       .  S
S703        H706   1.406       .  S
S704        H705   1.404       .  S
C709        C710   1.403       .  A
C709        C714   1.405       .  A
C710        C711   1.372   1_565  A
C710        H719   1.081   1_565  S
C711        C712   1.398   1_545  A
C711        S715   1.799       .  S
C712        C713   1.404       .  A
C713        C714   1.394       .  A
C713        H720   1.084       .  S
C714        S716   1.802       .  S
S715        H718   1.402       .  S
S716        H717   1.406       .  S
C721        C722   1.410       .  A
C721        C726   1.410       .  A
C722        C723   1.379       .  A
C722        H731   1.079       .  S
C723        C724   1.403       .  A
C723        S727   1.809   1_655  S
C724        C725   1.403       .  A
C725        C726   1.393       .  A
C725        H732   1.084       .  S
C726        S728   1.804       .  S
S727        H730   1.408       .  S
S728        H729   1.407       .  S
C733        C734   1.398       .  A
C733        C738   1.410   1_545  A
C734        C735   1.380       .  A
C734        H743   1.085       .  S
C735        C736   1.410       .  A
C735        S739   1.803       .  S
C736        C737   1.398   1_545  A
C737        C738   1.385       .  A
C737        H744   1.083       .  S
C738        S740   1.811       .  S
S739        H742   1.399       .  S
S740        H741   1.406       .  S
C745        C746   1.398       .  A
C745        C750   1.406   1_455  A
C746        C747   1.381       .  A
C746        H755   1.084       .  S
C747        C748   1.407       .  A
C747        S751   1.805       .  S
C748        C749   1.394   1_455  A
C749        C750   1.377       .  A
C749        H756   1.085       .  S
C750        S752   1.798       .  S
S751        H754   1.406       .  S
S752        H753   1.407       .  S
C757        C758   1.401       .  A
C757        C762   1.401   1_565  A
C758        C759   1.385       .  A
C758        H767   1.085       .  S
C759        C760   1.404       .  A
C759        S763   1.805       .  S
C760        C761   1.403   1_565  A
C761        C762   1.380       .  A
C761        H768   1.085       .  S
C762        S764   1.805       .  S
S763        H766   1.406       .  S
S764        H765   1.404       .  S
C769        C770   1.397       .  A
C769        C774   1.410   1_455  A
C770        C771   1.379       .  A
C770        H779   1.085       .  S
C771        C772   1.408       .  A
C771        S775   1.798       .  S
C772        C773   1.395   1_455  A
C773        C774   1.379       .  A
C773        H780   1.079       .  S
C774        S776   1.807       .  S
S775        H778   1.402       .  S
S776        H777   1.407       .  S
