geometry optimzed in LAMMPS
_audit_creation_date              2020-12-01 
_audit_creation_method            'lammps2cif' 
_symmetry_space_group_name_H-M    'P1' 
_symmetry_Int_Tables_number       1 
_symmetry_cell_setting            triclinic 
loop_ 
_symmetry_equiv_pos_as_xyz 
  x,y,z 
_cell_length_a                    31.84559172 
_cell_length_b                    31.880918397415527 
_cell_length_c                    44.97598442084599 
_cell_angle_alpha                 89.99391659045857 
_cell_angle_beta                  90.00532428248351 
_cell_angle_gamma                 120.0886057051301 
loop_ 
_atom_site_label 
_atom_site_type_symbol 
_atom_site_fract_x 
_atom_site_fract_y 
_atom_site_fract_z 
_atom_site_charge 
O1          O  0.09807178  0.33069877  0.28566253    -0.80400
C2          C  0.25804014  0.37583231  0.21016684     0.98900
O3          O  0.25171612  0.40535294  0.22547441    -0.69500
O4          O  0.16914960  0.40197146  0.21486382    -0.73100
Al5        Al  0.19934970  0.39797695  0.25018544     1.49000
C6          C  0.12416269  0.38170314  0.21039142     0.94200
O7          O  0.09783608  0.26659912  0.21485897    -0.79400
O8          O  0.16934405  0.26670240  0.28549101    -0.72900
Al9        Al  0.10198501  0.30066590  0.25025541     1.90100
O10         O  0.15409347  0.24839693  0.22550087    -0.72000
O11         O  0.25186385  0.34594554  0.27468385    -0.71800
O12         O  0.23332249  0.33090533  0.21469430    -0.77500
O13         O  0.23357403  0.40202853  0.28550958    -0.75700
O14         O  0.16688408  0.33315131  0.25018014    -1.11800
O15         O  0.15429518  0.40519993  0.27489435    -0.71000
C16         C  0.11834981  0.37562098  0.29018936     0.99700
C17         C  0.11807123  0.24196036  0.21028238     0.96100
Al18       Al  0.19932290  0.30081253  0.25009922     1.55600
O19         O  0.09461497  0.34572746  0.22566597    -0.75700
C20         C  0.25829922  0.38184942  0.28998087     1.00200
C21         C  0.12438543  0.24195245  0.29006844     0.95100
O22         O  0.09475119  0.24829692  0.27486023    -0.81000
C23         C  0.00059925  0.49989825  0.07527141     0.87900
C24         C  0.02759544  0.47599536  0.08896929    -0.52400
C25         C  0.02732634  0.47610454  0.11928471     0.10800
C26         C  0.00030099  0.49993881  0.13307415     0.21700
C27         C  0.44945092  0.47280435  0.08875291    -0.53100
C28         C  0.44950355  0.47294284  0.11906961     0.10900
C29         C  0.02453372  0.05092712  0.08882939    -0.52600
C30         C  0.02427546  0.05074070  0.11914662     0.11500
H31         H  0.04514876  0.46040291  0.07595852     0.16000
H32         H  0.00016944  0.99995514  0.15779614     0.01700
H33         H  0.41638573  0.45527765  0.07560418     0.16300
H34         H  0.04020557  0.08401021  0.07573008     0.16100
C35         C  0.50053595  0.99985261  0.42508746     0.87900
C36         C  0.02767546  0.05087229  0.41150446    -0.52400
C37         C  0.02759010  0.05066006  0.38118735     0.10800
C38         C  0.50059706  0.99984207  0.36728428     0.21700
C39         C  0.44947428  0.47586276  0.41148587    -0.53100
C40         C  0.44971481  0.47595467  0.38116876     0.10900
C41         C  0.02449461  0.47281822  0.41153434    -0.52600
C42         C  0.02443162  0.47291983  0.38121851     0.11500
H43         H  0.04517633  0.08397074  0.42458777     0.16000
H44         H  0.50061979  0.99983747  0.34256203     0.01700
H45         H  0.41633027  0.46025783  0.42455714     0.16300
H46         H  0.04005612  0.45532924  0.42463868     0.16100
O47         O  0.40340301  0.16874865  0.78565602    -0.80400
C48         C  0.24341465  0.12364228  0.71017158     0.98900
O49         O  0.24974330  0.09411596  0.72547503    -0.71300
O50         O  0.33230706  0.09750143  0.71485669    -0.73100
Al51       Al  0.30211581  0.10148263  0.75018180     1.49000
C52         C  0.37729283  0.11777142  0.71038206     0.94200
O53         O  0.40361836  0.23287272  0.71485921    -0.79400
O54         O  0.33213081  0.23274383  0.78549913    -0.72900
Al55       Al  0.39948006  0.19879397  0.75025249     1.90100
O56         O  0.34736462  0.25107178  0.72550932    -0.72000
O57         O  0.24960796  0.15350460  0.77469160    -0.71800
O58         O  0.26813258  0.16856753  0.71470180    -0.77500
O59         O  0.26790020  0.09741700  0.78550887    -0.75700
O60         O  0.33458098  0.16630825  0.75018038    -1.11800
O61         O  0.34717689  0.09425119  0.77488565    -0.71000
C62         C  0.38312618  0.12382481  0.79018016     0.99700
C63         C  0.38338231  0.25751354  0.71028768     0.96100
Al64       Al  0.30214201  0.19864694  0.75010653     1.55600
O65         O  0.40684426  0.15374150  0.72565765    -0.75700
C66         C  0.24317661  0.11759476  0.78998522     1.00200
C67         C  0.37709078  0.25749308  0.79007422     0.95100
O68         O  0.40672075  0.25115455  0.77486199    -0.81000
C69         C  0.00095165  0.49957714  0.92508771     0.87900
C70         C  0.47381243  0.44855591  0.91151056    -0.52400
C71         C  0.47389987  0.44876538  0.88119324     0.10800
C72         C  0.00089435  0.49958224  0.86728452     0.21700
C73         C  0.05201442  0.02356547  0.91149065    -0.53100
C74         C  0.05177582  0.02347065  0.88117339     0.10900
C75         C  0.47699440  0.02661020  0.91152421    -0.52600
C76         C  0.47705929  0.02650590  0.88120876     0.11500
H77         H  0.45630964  0.41545870  0.92459778     0.16000
H78         H  0.00087296  0.49958490  0.84256225     0.01700
H79         H  0.08515756  0.03917255  0.92456488     0.16300
H80         H  0.46143210  0.04410069  0.92462185     0.16100
C81         C  0.00084659  0.99959392  0.57527152     0.87900
C82         C  0.47384918  0.02349823  0.58895916    -0.52400
C83         C  0.47411578  0.02339128  0.61927494     0.10800
C84         C  0.00113990  0.49955766  0.63307434     0.21700
C85         C  0.05199363  0.02668849  0.58875727    -0.53100
C86         C  0.05193847  0.02655240  0.61907386     0.10900
C87         C  0.47691100  0.44856638  0.58883563    -0.52600
C88         C  0.47716645  0.44875493  0.61915267     0.11500
H89         H  0.45629677  0.03908973  0.57594155     0.16000
H90         H  0.00126963  0.49954284  0.65779637     0.01700
H91         H  0.08506001  0.04421293  0.57561131     0.16300
H92         H  0.46124109  0.41548233  0.57574024     0.16100
C93         C  0.39526701  0.29490840  0.81221734    -0.17100
C94         C  0.41182899  0.32830728  0.82949436     0.06900
C95         C  0.43246985  0.36913302  0.84841494     0.08800
C96         C  0.45095006  0.40500225  0.86371397    -0.18000
C97         C  0.09556145  0.04425075  0.86367470    -0.17100
C98         C  0.13144119  0.06156245  0.84835307     0.06900
C99         C  0.17228008  0.08164198  0.82940773     0.08800
C100        C  0.20570261  0.09840268  0.81212002    -0.18000
C101        C  0.40227113  0.10561305  0.81235115    -0.17100
C102        C  0.41899098  0.08893721  0.82961766     0.06900
C103        C  0.43902870  0.06812171  0.84849559     0.08800
C104        C  0.45631187  0.04951482  0.86375311    -0.18000
C105        C  0.45652118  0.40498957  0.63662188    -0.17100
C106        C  0.43932575  0.36912311  0.65191910     0.06900
C107        C  0.41935067  0.32830398  0.67084467     0.08800
C108        C  0.40262271  0.29491330  0.68813061    -0.18000
C109        C  0.20603743  0.10538455  0.68797597    -0.17100
C110        C  0.17264029  0.08874776  0.67066956     0.06900
C111        C  0.13177349  0.06803150  0.65174606     0.08800
C112        C  0.09583040  0.04951110  0.63647724    -0.18000
C113        C  0.39558089  0.09859123  0.68828511    -0.17100
C114        C  0.41219158  0.08177458  0.67104479     0.06900
C115        C  0.43283734  0.06159047  0.65214836     0.08800
C116        C  0.45127610  0.04420034  0.63683555    -0.18000
C117        C  0.00068843  0.99962986  0.54265796    -0.17100
C118        C  0.50059380  0.99969778  0.51586241     0.06900
C119        C  0.50052664  0.99978902  0.48449688     0.08800
C120        C  0.50050863  0.99984355  0.45770120    -0.18000
C121        C  0.00097472  0.49959293  0.95770144    -0.17100
C122        C  0.00094752  0.49966214  0.98449708     0.06900
C123        C  0.00086694  0.49977431  0.01586248     0.08800
C124        C  0.00076258  0.49985635  0.04265794    -0.18000
C125        C  0.09921069  0.39382498  0.31236418    -0.17100
C126        C  0.08249523  0.41049515  0.32963363     0.06900
C127        C  0.06246146  0.43130563  0.34851363     0.08800
C128        C  0.04518005  0.44991026  0.36377000    -0.18000
C129        C  0.40593002  0.45517560  0.36366684    -0.17100
C130        C  0.37004882  0.43786563  0.34834458     0.06900
C131        C  0.32920627  0.41778958  0.32940006     0.08800
C132        C  0.29577944  0.40103351  0.31211372    -0.18000
C133        C  0.10621525  0.20452977  0.31220967    -0.17100
C134        C  0.08965650  0.17112518  0.32948512     0.06900
C135        C  0.06901790  0.13029406  0.34840445     0.08800
C136        C  0.05053882  0.09442232  0.36370403    -0.18000
C137        C  0.10586919  0.40089139  0.18829830    -0.17100
C138        C  0.08925441  0.41771393  0.17106087     0.06900
C139        C  0.06860505  0.43790335  0.15216647     0.08800
C140        C  0.05016477  0.45529593  0.13685246    -0.18000
C141        C  0.29541219  0.39409806  0.18796980    -0.17100
C142        C  0.32880559  0.41073949  0.17066242     0.06900
C143        C  0.36966906  0.43145967  0.15173828     0.08800
C144        C  0.40561070  0.44998245  0.13647001    -0.18000
C145        C  0.04492118  0.09450680  0.13661163    -0.17100
C146        C  0.06211740  0.13037086  0.15190809     0.06900
C147        C  0.08209450  0.17118456  0.17083496     0.08800
C148        C  0.09882523  0.20456897  0.18812285    -0.18000
O149        O  0.09807179  0.83069877  0.28566252    -0.80400
C150        C  0.25804021  0.87583233  0.21016686     0.98900
O151        O  0.25171615  0.90535293  0.22547443    -0.69500
O152        O  0.16914959  0.90197144  0.21486382    -0.73100
Al153      Al  0.19934975  0.89797693  0.25018544     1.49000
C154        C  0.12416268  0.88170314  0.21039142     0.94200
O155        O  0.09783616  0.76659927  0.21485894    -0.79400
O156        O  0.16934406  0.76670248  0.28549108    -0.72900
Al157      Al  0.10198502  0.80066592  0.25025541     1.90100
O158        O  0.15409340  0.74839690  0.22550090    -0.72000
O159        O  0.25186384  0.84594551  0.27468386    -0.71800
O160        O  0.23332252  0.83090534  0.21469428    -0.77500
O161        O  0.23357405  0.90202852  0.28550957    -0.75700
O162        O  0.16688409  0.83315132  0.25018014    -1.11800
O163        O  0.15429534  0.90519989  0.27489440    -0.71000
C164        C  0.11834993  0.87562098  0.29018939     0.99700
C165        C  0.11807121  0.74196040  0.21028238     0.96100
Al166      Al  0.19932289  0.80081253  0.25009925     1.55600
O167        O  0.09461496  0.84572748  0.22566598    -0.75700
C168        C  0.25829921  0.88184939  0.28998088     1.00200
C169        C  0.12438543  0.74195244  0.29006847     0.95100
O170        O  0.09475118  0.74829687  0.27486024    -0.81000
C171        C  0.00059927  0.99989824  0.07527141     0.87900
C172        C  0.02759551  0.97599534  0.08896927    -0.52400
C173        C  0.02732634  0.97610453  0.11928472     0.10800
C174        C  0.00030099  0.99993880  0.13307414     0.21700
C175        C  0.44945093  0.97280435  0.08875294    -0.53100
C176        C  0.44950360  0.97294280  0.11906963     0.10900
C177        C  0.02453370  0.55092714  0.08882940    -0.52600
C178        C  0.02427543  0.55074070  0.11914662     0.11500
H179        H  0.04514877  0.96040305  0.07595861     0.16000
H180        H  0.00016949  0.49995516  0.15779615     0.01700
H181        H  0.41638575  0.95527771  0.07560422     0.16300
H182        H  0.04020554  0.58401022  0.07573008     0.16100
C183        C  0.50053598  0.49985262  0.42508746     0.87900
C184        C  0.02767564  0.55087230  0.41150446    -0.52400
C185        C  0.02759026  0.55066005  0.38118735     0.10800
C186        C  0.50059705  0.49984207  0.36728428     0.21700
C187        C  0.44947426  0.97586277  0.41148586    -0.53100
C188        C  0.44971481  0.97595467  0.38116875     0.10900
C189        C  0.02449457  0.97281829  0.41153431    -0.52600
C190        C  0.02443159  0.97291985  0.38121851     0.11500
H191        H  0.04517650  0.58397074  0.42458777     0.16000
H192        H  0.50061979  0.49983747  0.34256203     0.01700
H193        H  0.41633023  0.96025780  0.42455713     0.16300
H194        H  0.04005618  0.95532923  0.42463874     0.16100
O195        O  0.40340296  0.66874862  0.78565602    -0.80400
C196        C  0.24341473  0.62364234  0.71017155     0.98900
O197        O  0.24974332  0.59411599  0.72547502    -0.71300
O198        O  0.33230709  0.59750147  0.71485670    -0.73100
Al199      Al  0.30211580  0.60148263  0.75018180     1.49000
C200        C  0.37729285  0.61777141  0.71038205     0.94200
O201        O  0.40361847  0.73287271  0.71485923    -0.79400
O202        O  0.33213084  0.73274380  0.78549913    -0.72900
Al203      Al  0.39948010  0.69879394  0.75025249     1.90100
O204        O  0.34736471  0.75107176  0.72550929    -0.72000
O205        O  0.24960797  0.65350461  0.77469159    -0.71800
O206        O  0.26813265  0.66856757  0.71470179    -0.77500
O207        O  0.26790016  0.59741697  0.78550887    -0.75700
O208        O  0.33458101  0.66630823  0.75018038    -1.11800
O209        O  0.34717684  0.59425117  0.77488565    -0.71000
C210        C  0.38312613  0.62382479  0.79018017     0.99700
C211        C  0.38338240  0.75751353  0.71028767     0.96100
Al212      Al  0.30214206  0.69864694  0.75010653     1.55600
O213        O  0.40684432  0.65374144  0.72565767    -0.75700
C214        C  0.24317657  0.61759475  0.78998522     1.00200
C215        C  0.37709082  0.75749306  0.79007423     0.95100
O216        O  0.40672078  0.75115454  0.77486199    -0.81000
C217        C  0.00095164  0.99957714  0.92508771     0.87900
C218        C  0.47381241  0.94855591  0.91151056    -0.52400
C219        C  0.47389988  0.94876538  0.88119324     0.10800
C220        C  0.00089435  0.99958224  0.86728452     0.21700
C221        C  0.05201442  0.52356549  0.91149064    -0.53100
C222        C  0.05177581  0.52347066  0.88117339     0.10900
C223        C  0.47699436  0.52661019  0.91152422    -0.52600
C224        C  0.47705921  0.52650588  0.88120877     0.11500
H225        H  0.45630955  0.91545870  0.92459778     0.16000
H226        H  0.00087296  0.99958490  0.84256225     0.01700
H227        H  0.08515757  0.53917257  0.92456487     0.16300
H228        H  0.46143208  0.54410067  0.92462188     0.16100
C229        C  0.00084658  0.49959390  0.57527152     0.87900
C230        C  0.47384923  0.52349825  0.58895914    -0.52400
C231        C  0.47411582  0.52339130  0.61927493     0.10800
C232        C  0.00113992  0.99955770  0.63307435     0.21700
C233        C  0.05199362  0.52668849  0.58875728    -0.53100
C234        C  0.05193844  0.52655238  0.61907386     0.10900
C235        C  0.47691101  0.94856639  0.58883564    -0.52600
C236        C  0.47716659  0.94875497  0.61915269     0.11500
H237        H  0.45629681  0.53908968  0.57594154     0.16000
H238        H  0.00126966  0.99954290  0.65779637     0.01700
H239        H  0.08506000  0.54421295  0.57561132     0.16300
H240        H  0.46124101  0.91548237  0.57574028     0.16100
C241        C  0.39526702  0.79490839  0.81221735    -0.17100
C242        C  0.41182895  0.82830727  0.82949436     0.06900
C243        C  0.43246980  0.86913301  0.84841494     0.08800
C244        C  0.45095002  0.90500224  0.86371397    -0.18000
C245        C  0.09556141  0.54425074  0.86367470    -0.17100
C246        C  0.13144115  0.56156243  0.84835306     0.06900
C247        C  0.17228003  0.58164197  0.82940772     0.08800
C248        C  0.20570257  0.59840267  0.81212001    -0.18000
C249        C  0.40227108  0.60561303  0.81235115    -0.17100
C250        C  0.41899093  0.58893720  0.82961766     0.06900
C251        C  0.43902865  0.56812170  0.84849558     0.08800
C252        C  0.45631180  0.54951481  0.86375312    -0.18000
C253        C  0.45652128  0.90498960  0.63662190    -0.17100
C254        C  0.43932589  0.86912312  0.65191909     0.06900
C255        C  0.41935075  0.82830398  0.67084466     0.08800
C256        C  0.40262284  0.79491330  0.68813060    -0.18000
C257        C  0.20603745  0.60538460  0.68797596    -0.17100
C258        C  0.17264027  0.58874777  0.67066958     0.06900
C259        C  0.13177346  0.56803149  0.65174607     0.08800
C260        C  0.09583037  0.54951109  0.63647725    -0.18000
C261        C  0.39558085  0.59859118  0.68828508    -0.17100
C262        C  0.41219159  0.58177456  0.67104478     0.06900
C263        C  0.43283745  0.56159049  0.65214839     0.08800
C264        C  0.45127615  0.54420035  0.63683555    -0.18000
C265        C  0.00068847  0.49962987  0.54265796    -0.17100
C266        C  0.50059385  0.49969780  0.51586241     0.06900
C267        C  0.50052669  0.49978903  0.48449688     0.08800
C268        C  0.50050867  0.49984356  0.45770120    -0.18000
C269        C  0.00097468  0.99959292  0.95770144    -0.17100
C270        C  0.00094754  0.99966213  0.98449708     0.06900
C271        C  0.00086708  0.99977429  0.01586248     0.08800
C272        C  0.00076262  0.99985633  0.04265794    -0.18000
C273        C  0.09921074  0.89382501  0.31236417    -0.17100
C274        C  0.08249520  0.91049512  0.32963360     0.06900
C275        C  0.06246141  0.93130560  0.34851362     0.08800
C276        C  0.04518001  0.94991025  0.36377000    -0.18000
C277        C  0.40593006  0.95517554  0.36366682    -0.17100
C278        C  0.37004883  0.93786560  0.34834457     0.06900
C279        C  0.32920626  0.91778959  0.32940008     0.08800
C280        C  0.29577942  0.90103349  0.31211373    -0.18000
C281        C  0.10621530  0.70452972  0.31220967    -0.17100
C282        C  0.08965650  0.67112514  0.32948512     0.06900
C283        C  0.06901784  0.63029404  0.34840445     0.08800
C284        C  0.05053882  0.59442231  0.36370403    -0.18000
C285        C  0.10586915  0.90089137  0.18829830    -0.17100
C286        C  0.08925437  0.91771391  0.17106088     0.06900
C287        C  0.06860501  0.93790333  0.15216648     0.08800
C288        C  0.05016473  0.95529590  0.13685247    -0.18000
C289        C  0.29541226  0.89409817  0.18796982    -0.17100
C290        C  0.32880560  0.91073956  0.17066240     0.06900
C291        C  0.36966907  0.93145969  0.15173825     0.08800
C292        C  0.40561075  0.94998245  0.13647002    -0.18000
C293        C  0.04492122  0.59450680  0.13661163    -0.17100
C294        C  0.06211755  0.63037085  0.15190809     0.06900
C295        C  0.08209452  0.67118456  0.17083497     0.08800
C296        C  0.09882516  0.70456899  0.18812285    -0.18000
O297        O  0.59807171  0.33069878  0.28566251    -0.80400
C298        C  0.75804013  0.37583231  0.21016685     0.98900
O299        O  0.75171602  0.40535291  0.22547438    -0.69500
O300        O  0.66914951  0.40197145  0.21486386    -0.73100
Al301      Al  0.69934968  0.39797694  0.25018544     1.49000
C302        C  0.62416262  0.38170313  0.21039143     0.94200
O303        O  0.59783615  0.26659916  0.21485899    -0.79400
O304        O  0.66934408  0.26670238  0.28549098    -0.72900
Al305      Al  0.60198500  0.30066591  0.25025541     1.90100
O306        O  0.65409351  0.24839690  0.22550084    -0.72000
O307        O  0.75186379  0.34594552  0.27468388    -0.71800
O308        O  0.73332259  0.33090534  0.21469433    -0.77500
O309        O  0.73357406  0.40202859  0.28550956    -0.75700
O310        O  0.66688408  0.33315131  0.25018014    -1.11800
O311        O  0.65429526  0.40519991  0.27489440    -0.71000
C312        C  0.61834986  0.37562099  0.29018938     0.99700
C313        C  0.61807122  0.24196035  0.21028238     0.96100
Al314      Al  0.69932293  0.30081253  0.25009922     1.55600
O315        O  0.59461487  0.34572745  0.22566597    -0.75700
C316        C  0.75829917  0.38184941  0.28998089     1.00200
C317        C  0.62438548  0.24195244  0.29006844     0.95100
O318        O  0.59475122  0.24829694  0.27486026    -0.81000
C319        C  0.50059932  0.49989826  0.07527140     0.87900
C320        C  0.52759552  0.47599537  0.08896929    -0.52400
C321        C  0.52732639  0.47610454  0.11928471     0.10800
C322        C  0.50030104  0.49993883  0.13307415     0.21700
C323        C  0.94945079  0.47280432  0.08875290    -0.53100
C324        C  0.94950348  0.47294280  0.11906962     0.10900
C325        C  0.52453383  0.05092714  0.08882940    -0.52600
C326        C  0.52427555  0.05074071  0.11914662     0.11500
H327        H  0.54514887  0.46040294  0.07595852     0.16000
H328        H  0.50016960  0.99995516  0.15779615     0.01700
H329        H  0.91638580  0.45527776  0.07560426     0.16300
H330        H  0.54020565  0.08401022  0.07573008     0.16100
C331        C  0.00053593  0.99985262  0.42508746     0.87900
C332        C  0.52767555  0.05087228  0.41150446    -0.52400
C333        C  0.52759018  0.05066005  0.38118735     0.10800
C334        C  0.00059700  0.99984208  0.36728428     0.21700
C335        C  0.94947431  0.47586281  0.41148587    -0.53100
C336        C  0.94971484  0.47595474  0.38116876     0.10900
C337        C  0.52449467  0.47281828  0.41153434    -0.52600
C338        C  0.52443169  0.47291988  0.38121851     0.11500
H339        H  0.54517648  0.08397073  0.42458778     0.16000
H340        H  0.00061979  0.99983747  0.34256203     0.01700
H341        H  0.91633023  0.46025775  0.42455716     0.16300
H342        H  0.54005623  0.45532932  0.42463868     0.16100
O343        O  0.90340291  0.16874864  0.78565604    -0.80400
C344        C  0.74341474  0.12364235  0.71017156     0.98900
O345        O  0.74974343  0.09411603  0.72547499    -0.71300
O346        O  0.83230711  0.09750148  0.71485669    -0.73100
Al347      Al  0.80211582  0.10148265  0.75018179     1.49000
C348        C  0.87729288  0.11777142  0.71038207     0.94200
O349        O  0.90361843  0.23287274  0.71485923    -0.79400
O350        O  0.83213075  0.23274382  0.78549912    -0.72900
Al351      Al  0.89948008  0.19879398  0.75025250     1.90100
O352        O  0.84736464  0.25107177  0.72550929    -0.72000
O353        O  0.74960800  0.15350465  0.77469160    -0.71800
O354        O  0.76813255  0.16856757  0.71470182    -0.77500
O355        O  0.76790010  0.09741695  0.78550886    -0.75700
O356        O  0.83458101  0.16630826  0.75018037    -1.11800
O357        O  0.84717679  0.09425118  0.77488566    -0.71000
C358        C  0.88312605  0.12382480  0.79018020     0.99700
C359        C  0.88338237  0.25751355  0.71028768     0.96100
Al360      Al  0.80214203  0.19864695  0.75010653     1.55600
O361        O  0.90684432  0.15374147  0.72565768    -0.75700
C362        C  0.74317654  0.11759475  0.78998521     1.00200
C363        C  0.87709071  0.25749308  0.79007422     0.95100
O364        O  0.90672069  0.25115456  0.77486200    -0.81000
C365        C  0.50095155  0.49957714  0.92508771     0.87900
C366        C  0.97381256  0.44855590  0.91151056    -0.52400
C367        C  0.97389996  0.44876538  0.88119323     0.10800
C368        C  0.50089426  0.49958225  0.86728453     0.21700
C369        C  0.55201437  0.02356544  0.91149066    -0.53100
C370        C  0.55177577  0.02347064  0.88117340     0.10900
C371        C  0.97699445  0.02661019  0.91152422    -0.52600
C372        C  0.97705928  0.02650587  0.88120876     0.11500
H373        H  0.95630973  0.41545870  0.92459777     0.16000
H374        H  0.50087286  0.49958490  0.84256226     0.01700
H375        H  0.58515746  0.03917245  0.92456488     0.16300
H376        H  0.96143223  0.04410075  0.92462189     0.16100
C377        C  0.50084666  0.99959392  0.57527152     0.87900
C378        C  0.97384911  0.02349829  0.58895914    -0.52400
C379        C  0.97411579  0.02339132  0.61927494     0.10800
C380        C  0.50113992  0.49955767  0.63307435     0.21700
C381        C  0.55199368  0.02668855  0.58875727    -0.53100
C382        C  0.55193854  0.02655243  0.61907386     0.10900
C383        C  0.97691091  0.44856638  0.58883563    -0.52600
C384        C  0.97716649  0.44875492  0.61915267     0.11500
H385        H  0.95629679  0.03908968  0.57594164     0.16000
H386        H  0.50126957  0.49954285  0.65779638     0.01700
H387        H  0.58506009  0.04421308  0.57561128     0.16300
H388        H  0.96124096  0.41548232  0.57574024     0.16100
C389        C  0.89526689  0.29490840  0.81221734    -0.17100
C390        C  0.91182881  0.32830729  0.82949436     0.06900
C391        C  0.93246965  0.36913302  0.84841494     0.08800
C392        C  0.95094993  0.40500225  0.86371397    -0.18000
C393        C  0.59556136  0.04425079  0.86367468    -0.17100
C394        C  0.63144109  0.06156246  0.84835306     0.06900
C395        C  0.67228003  0.08164196  0.82940775     0.08800
C396        C  0.70570251  0.09840270  0.81212001    -0.18000
C397        C  0.90227102  0.10561305  0.81235116    -0.17100
C398        C  0.91899096  0.08893723  0.82961765     0.06900
C399        C  0.93902865  0.06812172  0.84849559     0.08800
C400        C  0.95631186  0.04951483  0.86375312    -0.18000
C401        C  0.95652131  0.40498957  0.63662188    -0.17100
C402        C  0.93932589  0.36912311  0.65191910     0.06900
C403        C  0.91935080  0.32830398  0.67084467     0.08800
C404        C  0.90262282  0.29491331  0.68813061    -0.18000
C405        C  0.70603750  0.10538458  0.68797597    -0.17100
C406        C  0.67264030  0.08874780  0.67066960     0.06900
C407        C  0.63177356  0.06803150  0.65174606     0.08800
C408        C  0.59583048  0.04951107  0.63647722    -0.18000
C409        C  0.89558089  0.09859120  0.68828510    -0.17100
C410        C  0.91219154  0.08177455  0.67104476     0.06900
C411        C  0.93283740  0.06159049  0.65214838     0.08800
C412        C  0.95127618  0.04420040  0.63683557    -0.18000
C413        C  0.50068848  0.99962986  0.54265797    -0.17100
C414        C  0.00059392  0.99969778  0.51586241     0.06900
C415        C  0.00052684  0.99978902  0.48449688     0.08800
C416        C  0.00050873  0.99984355  0.45770120    -0.18000
C417        C  0.50097456  0.49959294  0.95770144    -0.17100
C418        C  0.50094739  0.49966214  0.98449708     0.06900
C419        C  0.50086695  0.49977431  0.01586248     0.08800
C420        C  0.50076258  0.49985635  0.04265794    -0.18000
C421        C  0.59921076  0.39382501  0.31236418    -0.17100
C422        C  0.58249521  0.41049512  0.32963360     0.06900
C423        C  0.56246152  0.43130563  0.34851363     0.08800
C424        C  0.54518015  0.44991031  0.36377002    -0.18000
C425        C  0.90593007  0.45517559  0.36366683    -0.17100
C426        C  0.87004888  0.43786559  0.34834455     0.06900
C427        C  0.82920631  0.41778956  0.32940004     0.08800
C428        C  0.79577940  0.40103350  0.31211374    -0.18000
C429        C  0.60621534  0.20452977  0.31220966    -0.17100
C430        C  0.58965663  0.17112518  0.32948512     0.06900
C431        C  0.56901804  0.13029406  0.34840445     0.08800
C432        C  0.55053894  0.09442231  0.36370403    -0.18000
C433        C  0.60586920  0.40089138  0.18829827    -0.17100
C434        C  0.58925445  0.41771394  0.17106085     0.06900
C435        C  0.56860502  0.43790333  0.15216650     0.08800
C436        C  0.55016480  0.45529593  0.13685247    -0.18000
C437        C  0.79541210  0.39409809  0.18796979    -0.17100
C438        C  0.82880545  0.41073953  0.17066239     0.06900
C439        C  0.86966893  0.43145971  0.15173825     0.08800
C440        C  0.90561061  0.44998247  0.13647002    -0.18000
C441        C  0.54492113  0.09450680  0.13661163    -0.17100
C442        C  0.56211739  0.13037086  0.15190809     0.06900
C443        C  0.58209437  0.17118456  0.17083496     0.08800
C444        C  0.59882510  0.20456895  0.18812286    -0.18000
O445        O  0.59807166  0.83069876  0.28566251    -0.80400
C446        C  0.75804017  0.87583235  0.21016685     0.98900
O447        O  0.75171599  0.90535292  0.22547438    -0.69500
O448        O  0.66914946  0.90197143  0.21486386    -0.73100
Al449      Al  0.69934964  0.89797693  0.25018544     1.49000
C450        C  0.62416257  0.88170312  0.21039143     0.94200
O451        O  0.59783622  0.76659931  0.21485896    -0.79400
O452        O  0.66934403  0.76670236  0.28549098    -0.72900
Al453      Al  0.60198498  0.80066593  0.25025541     1.90100
O454        O  0.65409345  0.74839688  0.22550086    -0.72000
O455        O  0.75186375  0.84594550  0.27468388    -0.71800
O456        O  0.73332260  0.83090537  0.21469430    -0.77500
O457        O  0.73357401  0.90202858  0.28550956    -0.75700
O458        O  0.66688405  0.83315132  0.25018014    -1.11800
O459        O  0.65429521  0.90519989  0.27489440    -0.71000
C460        C  0.61834981  0.87562097  0.29018938     0.99700
C461        C  0.61807119  0.74196039  0.21028238     0.96100
Al462      Al  0.69932289  0.80081252  0.25009922     1.55600
O463        O  0.59461483  0.84572746  0.22566598    -0.75700
C464        C  0.75829912  0.88184940  0.28998089     1.00200
C465        C  0.62438543  0.74195243  0.29006843     0.95100
O466        O  0.59475118  0.74829692  0.27486024    -0.81000
C467        C  0.50059932  0.99989825  0.07527140     0.87900
C468        C  0.52759551  0.97599534  0.08896927    -0.52400
C469        C  0.52732643  0.97610454  0.11928470     0.10800
C470        C  0.50030110  0.99993882  0.13307415     0.21700
C471        C  0.94945080  0.97280432  0.08875290    -0.53100
C472        C  0.94950350  0.97294281  0.11906961     0.10900
C473        C  0.52453381  0.55092714  0.08882940    -0.52600
C474        C  0.52427553  0.55074071  0.11914662     0.11500
H475        H  0.54514881  0.96040288  0.07595849     0.16000
H476        H  0.50016944  0.49995516  0.15779615     0.01700
H477        H  0.91638580  0.95527777  0.07560426     0.16300
H478        H  0.54020569  0.58401022  0.07573008     0.16100
C479        C  0.00053601  0.49985263  0.42508746     0.87900
C480        C  0.52767553  0.55087228  0.41150446    -0.52400
C481        C  0.52759015  0.55066005  0.38118735     0.10800
C482        C  0.00059709  0.49984209  0.36728428     0.21700
C483        C  0.94947423  0.97586275  0.41148588    -0.53100
C484        C  0.94971476  0.97595469  0.38116876     0.10900
C485        C  0.52449463  0.97281825  0.41153434    -0.52600
C486        C  0.52443165  0.97291986  0.38121852     0.11500
H487        H  0.54517644  0.58397074  0.42458777     0.16000
H488        H  0.00061986  0.49983748  0.34256203     0.01700
H489        H  0.91633016  0.96025770  0.42455717     0.16300
H490        H  0.54005618  0.95532929  0.42463869     0.16100
O491        O  0.90340292  0.66874862  0.78565604    -0.80400
C492        C  0.74341471  0.62364234  0.71017157     0.98900
O493        O  0.74974342  0.59411602  0.72547499    -0.71300
O494        O  0.83230714  0.59750140  0.71485671    -0.73100
Al495      Al  0.80211581  0.60148262  0.75018180     1.49000
C496        C  0.87729291  0.61777141  0.71038207     0.94200
O497        O  0.90361838  0.73287272  0.71485923    -0.79400
O498        O  0.83213077  0.73274376  0.78549913    -0.72900
Al499      Al  0.89948006  0.69879397  0.75025249     1.90100
O500        O  0.84736460  0.75107175  0.72550929    -0.72000
O501        O  0.74960797  0.65350464  0.77469161    -0.71800
O502        O  0.76813250  0.66856756  0.71470184    -0.77500
O503        O  0.76790005  0.59741693  0.78550885    -0.75700
O504        O  0.83458098  0.66630823  0.75018036    -1.11800
O505        O  0.84717680  0.59425116  0.77488568    -0.71000
C506        C  0.88312615  0.62382479  0.79018017     0.99700
C507        C  0.88338232  0.75751353  0.71028767     0.96100
Al508      Al  0.80214200  0.69864693  0.75010654     1.55600
O509        O  0.90684433  0.65374149  0.72565767    -0.75700
C510        C  0.74317649  0.61759474  0.78998520     1.00200
C511        C  0.87709074  0.75749306  0.79007422     0.95100
O512        O  0.90672073  0.75115457  0.77486199    -0.81000
C513        C  0.50095156  0.99957713  0.92508771     0.87900
C514        C  0.97381252  0.94855590  0.91151056    -0.52400
C515        C  0.97389992  0.94876537  0.88119323     0.10800
C516        C  0.50089433  0.99958225  0.86728453     0.21700
C517        C  0.55201434  0.52356545  0.91149065    -0.53100
C518        C  0.55177571  0.52347065  0.88117339     0.10900
C519        C  0.97699442  0.52661016  0.91152423    -0.52600
C520        C  0.97705926  0.52650583  0.88120877     0.11500
H521        H  0.95630968  0.91545870  0.92459777     0.16000
H522        H  0.50087301  0.99958490  0.84256226     0.01700
H523        H  0.58515746  0.53917244  0.92456485     0.16300
H524        H  0.96143219  0.54410071  0.92462190     0.16100
C525        C  0.50084671  0.49959390  0.57527152     0.87900
C526        C  0.97384908  0.52349825  0.58895913    -0.52400
C527        C  0.97411575  0.52339126  0.61927494     0.10800
C528        C  0.50113998  0.99955770  0.63307436     0.21700
C529        C  0.55199373  0.52668847  0.58875729    -0.53100
C530        C  0.55193852  0.52655236  0.61907388     0.10900
C531        C  0.97691089  0.94856639  0.58883564    -0.52600
C532        C  0.97716649  0.94875496  0.61915268     0.11500
H533        H  0.95629676  0.53908964  0.57594165     0.16000
H534        H  0.50126973  0.99954290  0.65779639     0.01700
H535        H  0.58506013  0.54421292  0.57561135     0.16300
H536        H  0.96124093  0.91548237  0.57574027     0.16100
C537        C  0.89526694  0.79490839  0.81221734    -0.17100
C538        C  0.91182895  0.82830727  0.82949436     0.06900
C539        C  0.93246967  0.86913301  0.84841494     0.08800
C540        C  0.95094988  0.90500224  0.86371397    -0.18000
C541        C  0.59556129  0.54425077  0.86367467    -0.17100
C542        C  0.63144104  0.56156244  0.84835306     0.06900
C543        C  0.67227998  0.58164195  0.82940775     0.08800
C544        C  0.70570246  0.59840268  0.81212001    -0.18000
C545        C  0.90227117  0.60561304  0.81235112    -0.17100
C546        C  0.91899105  0.58893722  0.82961764     0.06900
C547        C  0.93902876  0.56812172  0.84849557     0.08800
C548        C  0.95631189  0.54951480  0.86375312    -0.18000
C549        C  0.95652129  0.90498960  0.63662189    -0.17100
C550        C  0.93932585  0.86912312  0.65191909     0.06900
C551        C  0.91935076  0.82830398  0.67084466     0.08800
C552        C  0.90262277  0.79491330  0.68813061    -0.18000
C553        C  0.70603750  0.60538456  0.68797596    -0.17100
C554        C  0.67264037  0.58874775  0.67066956     0.06900
C555        C  0.63177356  0.56803148  0.65174605     0.08800
C556        C  0.59583045  0.54951106  0.63647726    -0.18000
C557        C  0.89558097  0.59859122  0.68828511    -0.17100
C558        C  0.91219166  0.58177457  0.67104479     0.06900
C559        C  0.93283741  0.56159047  0.65214838     0.08800
C560        C  0.95127615  0.54420035  0.63683556    -0.18000
C561        C  0.50068855  0.49962987  0.54265796    -0.17100
C562        C  0.00059397  0.49969780  0.51586241     0.06900
C563        C  0.00052689  0.49978903  0.48449688     0.08800
C564        C  0.00050879  0.49984356  0.45770120    -0.18000
C565        C  0.50097452  0.99959292  0.95770144    -0.17100
C566        C  0.50094734  0.99966213  0.98449708     0.06900
C567        C  0.50086690  0.99977429  0.01586248     0.08800
C568        C  0.50076253  0.99985634  0.04265794    -0.18000
C569        C  0.59921071  0.89382499  0.31236418    -0.17100
C570        C  0.58249516  0.91049510  0.32963360     0.06900
C571        C  0.56246147  0.93130561  0.34851363     0.08800
C572        C  0.54518011  0.94991029  0.36377002    -0.18000
C573        C  0.90593001  0.95517556  0.36366683    -0.17100
C574        C  0.87004883  0.93786557  0.34834454     0.06900
C575        C  0.82920626  0.91778955  0.32940004     0.08800
C576        C  0.79577935  0.90103348  0.31211374    -0.18000
C577        C  0.60621529  0.70452975  0.31220966    -0.17100
C578        C  0.58965659  0.67112516  0.32948512     0.06900
C579        C  0.56901799  0.63029405  0.34840445     0.08800
C580        C  0.55053890  0.59442230  0.36370403    -0.18000
C581        C  0.60586915  0.90089136  0.18829827    -0.17100
C582        C  0.58925441  0.91771392  0.17106085     0.06900
C583        C  0.56860498  0.93790330  0.15216650     0.08800
C584        C  0.55016479  0.95529590  0.13685246    -0.18000
C585        C  0.79541228  0.89409819  0.18796987    -0.17100
C586        C  0.82880560  0.91073953  0.17066245     0.06900
C587        C  0.86966898  0.93145970  0.15173823     0.08800
C588        C  0.90561063  0.94998249  0.13646999    -0.18000
C589        C  0.54492128  0.59450680  0.13661163    -0.17100
C590        C  0.56211743  0.63037085  0.15190809     0.06900
C591        C  0.58209432  0.67118456  0.17083497     0.08800
C592        C  0.59882502  0.70456897  0.18812287    -0.18000
loop_ 
_geom_bond_atom_site_label_1 
_geom_bond_atom_site_label_2 
_geom_bond_distance 
_geom_bond_site_symmetry_2 
_ccdc_geom_bond_type 
O1           C16   1.258       .  A
O1           Al9   1.894       .  S
C2           O12   1.258       .  A
C2            O3   1.261       .  A
C2          C141   1.434       .  S
O3           Al5   1.918       .  S
O4            C6   1.258       .  A
O4           Al5   1.894       .  S
Al5          O13   1.894       .  S
Al5          O15   1.918       .  S
Al5          O14   1.788       .  S
C6           O19   1.261       .  A
C6          C137   1.435       .  S
O7           C17   1.258       .  A
O7           Al9   1.894       .  S
O8           C21   1.258       .  A
O8          Al18   1.894       .  S
Al9          O22   1.918       .  S
Al9          O19   1.918       .  S
Al9          O14   1.788       .  S
O10          C17   1.261       .  A
O10         Al18   1.918       .  S
O11          C20   1.261       .  A
O11         Al18   1.918       .  S
O12         Al18   1.894       .  S
O13          C20   1.258       .  A
O14         Al18   1.788       .  S
O15          C16   1.261       .  A
C16         C125   1.435       .  S
C17         C148   1.434       .  S
C20         C132   1.434       .  S
C21          O22   1.261       .  A
C21         C133   1.434       .  S
C23          C24   1.535       .  S
C23         C177   1.535       .  S
C23         C323   1.535   1_455  S
C23         C124   1.467       .  S
C24          H31   1.087       .  S
C24          C25   1.364       .  D
C25          C26   1.536       .  S
C25         C140   1.441       .  S
C26         C178   1.536       .  S
C26         C324   1.536   1_455  S
C26         H180   1.112       .  S
C27         C319   1.535       .  S
C27          H33   1.087       .  S
C27          C28   1.364       .  D
C28         C322   1.536       .  S
C28         C144   1.441       .  S
C29         C171   1.535   1_545  S
C29          H34   1.087       .  S
C29          C30   1.364       .  D
C30         C174   1.536   1_545  S
C30         C145   1.441       .  S
H32         C174   1.112       .  S
C35         C332   1.535   1_565  S
C35         C485   1.535       .  S
C35         C187   1.535       .  S
C35         C120   1.467       .  S
C36         C331   1.535   1_545  S
C36          H43   1.087       .  S
C36          C37   1.364       .  D
C37         C334   1.536   1_545  S
C37         C136   1.441       .  S
C38         C333   1.536   1_565  S
C38         C486   1.536       .  S
C38         C188   1.536       .  S
C38          H44   1.112       .  S
C39         C183   1.535       .  S
C39          H45   1.087       .  S
C39          C40   1.364       .  D
C40         C186   1.536       .  S
C40         C129   1.441       .  S
C41         C479   1.535       .  S
C41          H46   1.087       .  S
C41          C42   1.363       .  D
C42         C482   1.536       .  S
C42         C128   1.441       .  S
O47          C62   1.258       .  A
O47         Al55   1.894       .  S
C48          O58   1.258       .  A
C48          O49   1.261       .  A
C48         C109   1.434       .  S
O49         Al51   1.918       .  S
O50          C52   1.258       .  A
O50         Al51   1.894       .  S
Al51         O59   1.894       .  S
Al51         O61   1.918       .  S
Al51         O60   1.788       .  S
C52          O65   1.261       .  A
C52         C113   1.435       .  S
O53          C63   1.258       .  A
O53         Al55   1.894       .  S
O54          C67   1.258       .  A
O54         Al64   1.894       .  S
Al55         O68   1.918       .  S
Al55         O65   1.918       .  S
Al55         O60   1.788       .  S
O56          C63   1.261       .  A
O56         Al64   1.918       .  S
O57          C66   1.261       .  A
O57         Al64   1.918       .  S
O58         Al64   1.894       .  S
O59          C66   1.258       .  A
O60         Al64   1.788       .  S
O61          C62   1.261       .  A
C62         C101   1.435       .  S
C63         C108   1.434       .  S
C66         C100   1.434       .  S
C67          O68   1.261       .  A
C67          C93   1.434       .  S
C69         C366   1.535   1_455  S
C69         C519   1.535   1_455  S
C69         C221   1.535       .  S
C69         C121   1.467       .  S
C70         C365   1.535       .  S
C70          H77   1.087       .  S
C70          C71   1.364       .  D
C71         C368   1.536       .  S
C71          C96   1.441       .  S
C72         C367   1.536   1_455  S
C72         C520   1.536   1_455  S
C72         C222   1.536       .  S
C72          H78   1.112       .  S
C73         C217   1.535   1_545  S
C73          H79   1.087       .  S
C73          C74   1.364       .  D
C74         C220   1.536   1_545  S
C74          C97   1.441       .  S
C75         C513   1.535   1_545  S
C75          H80   1.087       .  S
C75          C76   1.363       .  D
C76         C516   1.536   1_545  S
C76         C104   1.441       .  S
C81          C85   1.535   1_565  S
C81         C378   1.535   1_465  S
C81         C531   1.535   1_455  S
C81         C117   1.467       .  S
C82         C377   1.535   1_545  S
C82          H89   1.087       .  S
C82          C83   1.364       .  D
C83         C528   1.536   1_545  S
C83         C116   1.441       .  S
C84         C527   1.536   1_455  S
C84         C384   1.536   1_455  S
C84         C234   1.536       .  S
C84          H90   1.112       .  S
C85          H91   1.087       .  S
C85          C86   1.364       .  D
C86         C232   1.536   1_545  S
C86         C112   1.441       .  S
C87         C525   1.535       .  S
C87          H92   1.087       .  S
C87          C88   1.364       .  D
C88         C380   1.536       .  S
C88         C105   1.441       .  S
C93          C94   1.205       .  T
C94          C95   1.412       .  S
C95          C96   1.205       .  T
C97          C98   1.205       .  T
C98          C99   1.412       .  S
C99         C100   1.205       .  T
C101        C102   1.205       .  T
C102        C103   1.412       .  S
C103        C104   1.205       .  T
C105        C106   1.205       .  T
C106        C107   1.412       .  S
C107        C108   1.205       .  T
C109        C110   1.205       .  T
C110        C111   1.412       .  S
C111        C112   1.205       .  T
C113        C114   1.205       .  T
C114        C115   1.412       .  S
C115        C116   1.205       .  T
C117        C414   1.205       .  T
C118        C413   1.205       .  T
C118        C119   1.411       .  S
C119        C120   1.205       .  T
C121        C122   1.205       .  T
C122        C123   1.411   1_556  S
C123        C124   1.205       .  T
C125        C126   1.205       .  T
C126        C127   1.412       .  S
C127        C128   1.205       .  T
C129        C130   1.205       .  T
C130        C131   1.412       .  S
C131        C132   1.205       .  T
C133        C134   1.205       .  T
C134        C135   1.412       .  S
C135        C136   1.205       .  T
C137        C138   1.205       .  T
C138        C139   1.412       .  S
C139        C140   1.205       .  T
C141        C142   1.205       .  T
C142        C143   1.412       .  S
C143        C144   1.205       .  T
C145        C146   1.205       .  T
C146        C147   1.412       .  S
C147        C148   1.205       .  T
O149        C164   1.258       .  A
O149       Al157   1.894       .  S
C150        O160   1.258       .  A
C150        O151   1.261       .  A
C150        C289   1.434       .  S
O151       Al153   1.918       .  S
O152        C154   1.258       .  A
O152       Al153   1.894       .  S
Al153       O161   1.894       .  S
Al153       O163   1.918       .  S
Al153       O162   1.788       .  S
C154        O167   1.261       .  A
C154        C285   1.435       .  S
O155        C165   1.258       .  A
O155       Al157   1.894       .  S
O156        C169   1.258       .  A
O156       Al166   1.894       .  S
Al157       O170   1.918       .  S
Al157       O167   1.918       .  S
Al157       O162   1.788       .  S
O158        C165   1.261       .  A
O158       Al166   1.918       .  S
O159        C168   1.261       .  A
O159       Al166   1.918       .  S
O160       Al166   1.894       .  S
O161        C168   1.258       .  A
O162       Al166   1.788       .  S
O163        C164   1.261       .  A
C164        C273   1.435       .  S
C165        C296   1.434       .  S
C168        C280   1.434       .  S
C169        O170   1.261       .  A
C169        C281   1.434       .  S
C171        C172   1.535       .  S
C171        C471   1.535   1_455  S
C171        C272   1.467       .  S
C172        H179   1.087       .  S
C172        C173   1.364       .  D
C173        C174   1.536       .  S
C173        C288   1.441       .  S
C174        C472   1.536   1_455  S
C175        C467   1.535       .  S
C175        H181   1.087       .  S
C175        C176   1.364       .  D
C176        C470   1.536       .  S
C176        C292   1.441       .  S
C177        H182   1.087       .  S
C177        C178   1.364       .  D
C178        C293   1.441       .  S
C183        C480   1.535       .  S
C183        C337   1.535       .  S
C183        C268   1.467       .  S
C184        C479   1.535       .  S
C184        H191   1.087       .  S
C184        C185   1.364       .  D
C185        C482   1.536       .  S
C185        C284   1.441       .  S
C186        C481   1.536       .  S
C186        C338   1.536       .  S
C186        H192   1.112       .  S
C187        H193   1.087       .  S
C187        C188   1.364       .  D
C188        C277   1.441       .  S
C189        C331   1.535       .  S
C189        H194   1.087       .  S
C189        C190   1.363       .  D
C190        C334   1.536       .  S
C190        C276   1.441       .  S
O195        C210   1.258       .  A
O195       Al203   1.894       .  S
C196        O206   1.258       .  A
C196        O197   1.261       .  A
C196        C257   1.434       .  S
O197       Al199   1.918       .  S
O198        C200   1.258       .  A
O198       Al199   1.894       .  S
Al199       O207   1.894       .  S
Al199       O209   1.918       .  S
Al199       O208   1.788       .  S
C200        O213   1.261       .  A
C200        C261   1.435       .  S
O201        C211   1.258       .  A
O201       Al203   1.894       .  S
O202        C215   1.258       .  A
O202       Al212   1.894       .  S
Al203       O216   1.918       .  S
Al203       O213   1.918       .  S
Al203       O208   1.788       .  S
O204        C211   1.261       .  A
O204       Al212   1.918       .  S
O205        C214   1.261       .  A
O205       Al212   1.918       .  S
O206       Al212   1.894       .  S
O207        C214   1.258       .  A
O208       Al212   1.788       .  S
O209        C210   1.261       .  A
C210        C249   1.435       .  S
C211        C256   1.434       .  S
C214        C248   1.434       .  S
C215        O216   1.261       .  A
C215        C241   1.434       .  S
C217        C514   1.535   1_455  S
C217        C371   1.535   1_465  S
C217        C269   1.467       .  S
C218        C513   1.535       .  S
C218        H225   1.087       .  S
C218        C219   1.364       .  D
C219        C516   1.536       .  S
C219        C244   1.441       .  S
C220        C515   1.536   1_455  S
C220        C372   1.536   1_465  S
C220        H226   1.112       .  S
C221        H227   1.087       .  S
C221        C222   1.364       .  D
C222        C245   1.441       .  S
C223        C365   1.535       .  S
C223        H228   1.087       .  S
C223        C224   1.363       .  D
C224        C368   1.536       .  S
C224        C252   1.441       .  S
C229        C526   1.535   1_455  S
C229        C383   1.535   1_455  S
C229        C233   1.535       .  S
C229        C265   1.467       .  S
C230        C525   1.535       .  S
C230        H237   1.087       .  S
C230        C231   1.364       .  D
C231        C380   1.536       .  S
C231        C264   1.441       .  S
C232        C379   1.536   1_465  S
C232        C532   1.536   1_455  S
C232        H238   1.112       .  S
C233        H239   1.087       .  S
C233        C234   1.364       .  D
C234        C260   1.441       .  S
C235        C377   1.535       .  S
C235        H240   1.087       .  S
C235        C236   1.364       .  D
C236        C528   1.536       .  S
C236        C253   1.441       .  S
C241        C242   1.205       .  T
C242        C243   1.412       .  S
C243        C244   1.205       .  T
C245        C246   1.205       .  T
C246        C247   1.412       .  S
C247        C248   1.205       .  T
C249        C250   1.205       .  T
C250        C251   1.412       .  S
C251        C252   1.205       .  T
C253        C254   1.205       .  T
C254        C255   1.412       .  S
C255        C256   1.205       .  T
C257        C258   1.205       .  T
C258        C259   1.412       .  S
C259        C260   1.205       .  T
C261        C262   1.205       .  T
C262        C263   1.412       .  S
C263        C264   1.205       .  T
C265        C562   1.205       .  T
C266        C561   1.205       .  T
C266        C267   1.411       .  S
C267        C268   1.205       .  T
C269        C270   1.205       .  T
C270        C271   1.411   1_556  S
C271        C272   1.205       .  T
C273        C274   1.205       .  T
C274        C275   1.412       .  S
C275        C276   1.205       .  T
C277        C278   1.205       .  T
C278        C279   1.412       .  S
C279        C280   1.205       .  T
C281        C282   1.205       .  T
C282        C283   1.412       .  S
C283        C284   1.205       .  T
C285        C286   1.205       .  T
C286        C287   1.412       .  S
C287        C288   1.205       .  T
C289        C290   1.205       .  T
C290        C291   1.412       .  S
C291        C292   1.205       .  T
C293        C294   1.205       .  T
C294        C295   1.412       .  S
C295        C296   1.205       .  T
O297        C312   1.258       .  A
O297       Al305   1.894       .  S
C298        O308   1.258       .  A
C298        O299   1.261       .  A
C298        C437   1.434       .  S
O299       Al301   1.918       .  S
O300        C302   1.258       .  A
O300       Al301   1.894       .  S
Al301       O309   1.894       .  S
Al301       O311   1.918       .  S
Al301       O310   1.788       .  S
C302        O315   1.261       .  A
C302        C433   1.435       .  S
O303        C313   1.258       .  A
O303       Al305   1.894       .  S
O304        C317   1.258       .  A
O304       Al314   1.894       .  S
Al305       O318   1.918       .  S
Al305       O315   1.918       .  S
Al305       O310   1.788       .  S
O306        C313   1.261       .  A
O306       Al314   1.918       .  S
O307        C316   1.261       .  A
O307       Al314   1.918       .  S
O308       Al314   1.894       .  S
O309        C316   1.258       .  A
O310       Al314   1.788       .  S
O311        C312   1.261       .  A
C312        C421   1.435       .  S
C313        C444   1.434       .  S
C316        C428   1.434       .  S
C317        O318   1.261       .  A
C317        C429   1.434       .  S
C319        C320   1.535       .  S
C319        C473   1.535       .  S
C319        C420   1.467       .  S
C320        H327   1.087       .  S
C320        C321   1.364       .  D
C321        C322   1.536       .  S
C321        C436   1.441       .  S
C322        C474   1.536       .  S
C322        H476   1.112       .  S
C323        H329   1.087       .  S
C323        C324   1.364       .  D
C324        C440   1.441       .  S
C325        C467   1.535   1_545  S
C325        H330   1.087       .  S
C325        C326   1.364       .  D
C326        C470   1.536   1_545  S
C326        C441   1.441       .  S
H328        C470   1.112       .  S
C331        C483   1.535   1_455  S
C331        C416   1.467       .  S
C332        H339   1.087       .  S
C332        C333   1.364       .  D
C333        C432   1.441       .  S
C334        C484   1.536   1_455  S
C334        H340   1.112       .  S
C335        C479   1.535   1_655  S
C335        H341   1.087       .  S
C335        C336   1.364       .  D
C336        C482   1.536   1_655  S
C336        C425   1.441       .  S
C337        H342   1.087       .  S
C337        C338   1.363       .  D
C338        C424   1.441       .  S
O343        C358   1.258       .  A
O343       Al351   1.894       .  S
C344        O354   1.258       .  A
C344        O345   1.261       .  A
C344        C405   1.434       .  S
O345       Al347   1.918       .  S
O346        C348   1.258       .  A
O346       Al347   1.894       .  S
Al347       O355   1.894       .  S
Al347       O357   1.918       .  S
Al347       O356   1.788       .  S
C348        O361   1.261       .  A
C348        C409   1.435       .  S
O349        C359   1.258       .  A
O349       Al351   1.894       .  S
O350        C363   1.258       .  A
O350       Al360   1.894       .  S
Al351       O364   1.918       .  S
Al351       O361   1.918       .  S
Al351       O356   1.788       .  S
O352        C359   1.261       .  A
O352       Al360   1.918       .  S
O353        C362   1.261       .  A
O353       Al360   1.918       .  S
O354       Al360   1.894       .  S
O355        C362   1.258       .  A
O356       Al360   1.788       .  S
O357        C358   1.261       .  A
C358        C397   1.435       .  S
C359        C404   1.434       .  S
C362        C396   1.434       .  S
C363        O364   1.261       .  A
C363        C389   1.434       .  S
C365        C517   1.535       .  S
C365        C417   1.467       .  S
C366        H373   1.087       .  S
C366        C367   1.364       .  D
C367        C392   1.441       .  S
C368        C518   1.536       .  S
C368        H374   1.112       .  S
C369        C513   1.535   1_545  S
C369        H375   1.087       .  S
C369        C370   1.364       .  D
C370        C516   1.536   1_545  S
C370        C393   1.441       .  S
C371        H376   1.087       .  S
C371        C372   1.363       .  D
C372        C400   1.441       .  S
C377        C381   1.535   1_565  S
C377        C413   1.467       .  S
C378        H385   1.087       .  S
C378        C379   1.364       .  D
C379        C412   1.441       .  S
C380        C530   1.536       .  S
C380        H386   1.112       .  S
C381        H387   1.087       .  S
C381        C382   1.364       .  D
C382        C528   1.536   1_545  S
C382        C408   1.441       .  S
C383        H388   1.087       .  S
C383        C384   1.364       .  D
C384        C401   1.441       .  S
C389        C390   1.205       .  T
C390        C391   1.412       .  S
C391        C392   1.205       .  T
C393        C394   1.205       .  T
C394        C395   1.412       .  S
C395        C396   1.205       .  T
C397        C398   1.205       .  T
C398        C399   1.412       .  S
C399        C400   1.205       .  T
C401        C402   1.205       .  T
C402        C403   1.412       .  S
C403        C404   1.205       .  T
C405        C406   1.205       .  T
C406        C407   1.412       .  S
C407        C408   1.205       .  T
C409        C410   1.205       .  T
C410        C411   1.412       .  S
C411        C412   1.205       .  T
C414        C415   1.411       .  S
C415        C416   1.205       .  T
C417        C418   1.205       .  T
C418        C419   1.411   1_556  S
C419        C420   1.205       .  T
C421        C422   1.205       .  T
C422        C423   1.412       .  S
C423        C424   1.205       .  T
C425        C426   1.205       .  T
C426        C427   1.412       .  S
C427        C428   1.205       .  T
C429        C430   1.205       .  T
C430        C431   1.412       .  S
C431        C432   1.205       .  T
C433        C434   1.205       .  T
C434        C435   1.412       .  S
C435        C436   1.205       .  T
C437        C438   1.205       .  T
C438        C439   1.412       .  S
C439        C440   1.205       .  T
C441        C442   1.205       .  T
C442        C443   1.412       .  S
C443        C444   1.205       .  T
O445        C460   1.258       .  A
O445       Al453   1.894       .  S
C446        O456   1.258       .  A
C446        O447   1.261       .  A
C446        C585   1.434       .  S
O447       Al449   1.918       .  S
O448        C450   1.258       .  A
O448       Al449   1.894       .  S
Al449       O457   1.894       .  S
Al449       O459   1.918       .  S
Al449       O458   1.788       .  S
C450        O463   1.261       .  A
C450        C581   1.435       .  S
O451        C461   1.258       .  A
O451       Al453   1.894       .  S
O452        C465   1.258       .  A
O452       Al462   1.894       .  S
Al453       O466   1.918       .  S
Al453       O463   1.918       .  S
Al453       O458   1.788       .  S
O454        C461   1.261       .  A
O454       Al462   1.918       .  S
O455        C464   1.261       .  A
O455       Al462   1.918       .  S
O456       Al462   1.894       .  S
O457        C464   1.258       .  A
O458       Al462   1.788       .  S
O459        C460   1.261       .  A
C460        C569   1.435       .  S
C461        C592   1.434       .  S
C464        C576   1.434       .  S
C465        O466   1.261       .  A
C465        C577   1.434       .  S
C467        C468   1.535       .  S
C467        C568   1.467       .  S
C468        H475   1.087       .  S
C468        C469   1.364       .  D
C469        C470   1.536       .  S
C469        C584   1.441       .  S
C471        H477   1.087       .  S
C471        C472   1.364       .  D
C472        C588   1.441       .  S
C473        H478   1.087       .  S
C473        C474   1.364       .  D
C474        C589   1.441       .  S
C479        C564   1.467       .  S
C480        H487   1.087       .  S
C480        C481   1.364       .  D
C481        C580   1.441       .  S
C482        H488   1.112       .  S
C483        H489   1.087       .  S
C483        C484   1.364       .  D
C484        C573   1.441       .  S
C485        H490   1.087       .  S
C485        C486   1.363       .  D
C486        C572   1.441       .  S
O491        C506   1.258       .  A
O491       Al499   1.894       .  S
C492        O502   1.258       .  A
C492        O493   1.261       .  A
C492        C553   1.434       .  S
O493       Al495   1.918       .  S
O494        C496   1.258       .  A
O494       Al495   1.894       .  S
Al495       O503   1.894       .  S
Al495       O505   1.918       .  S
Al495       O504   1.788       .  S
C496        O509   1.261       .  A
C496        C557   1.435       .  S
O497        C507   1.258       .  A
O497       Al499   1.894       .  S
O498        C511   1.258       .  A
O498       Al508   1.894       .  S
Al499       O512   1.918       .  S
Al499       O509   1.918       .  S
Al499       O504   1.788       .  S
O500        C507   1.261       .  A
O500       Al508   1.918       .  S
O501        C510   1.261       .  A
O501       Al508   1.918       .  S
O502       Al508   1.894       .  S
O503        C510   1.258       .  A
O504       Al508   1.788       .  S
O505        C506   1.261       .  A
C506        C545   1.435       .  S
C507        C552   1.434       .  S
C510        C544   1.434       .  S
C511        O512   1.261       .  A
C511        C537   1.434       .  S
C513        C565   1.467       .  S
C514        H521   1.087       .  S
C514        C515   1.364       .  D
C515        C540   1.441       .  S
C516        H522   1.112       .  S
C517        H523   1.087       .  S
C517        C518   1.364       .  D
C518        C541   1.441       .  S
C519        H524   1.087       .  S
C519        C520   1.363       .  D
C520        C548   1.441       .  S
C525        C529   1.535       .  S
C525        C561   1.467       .  S
C526        H533   1.087       .  S
C526        C527   1.364       .  D
C527        C560   1.441       .  S
C528        H534   1.112       .  S
C529        H535   1.087       .  S
C529        C530   1.364       .  D
C530        C556   1.441       .  S
C531        H536   1.087       .  S
C531        C532   1.364       .  D
C532        C549   1.441       .  S
C537        C538   1.205       .  T
C538        C539   1.412       .  S
C539        C540   1.205       .  T
C541        C542   1.205       .  T
C542        C543   1.412       .  S
C543        C544   1.205       .  T
C545        C546   1.205       .  T
C546        C547   1.412       .  S
C547        C548   1.205       .  T
C549        C550   1.205       .  T
C550        C551   1.412       .  S
C551        C552   1.205       .  T
C553        C554   1.205       .  T
C554        C555   1.412       .  S
C555        C556   1.205       .  T
C557        C558   1.205       .  T
C558        C559   1.412       .  S
C559        C560   1.205       .  T
C562        C563   1.411       .  S
C563        C564   1.205       .  T
C565        C566   1.205       .  T
C566        C567   1.411   1_556  S
C567        C568   1.205       .  T
C569        C570   1.205       .  T
C570        C571   1.412       .  S
C571        C572   1.205       .  T
C573        C574   1.205       .  T
C574        C575   1.412       .  S
C575        C576   1.205       .  T
C577        C578   1.205       .  T
C578        C579   1.412       .  S
C579        C580   1.205       .  T
C581        C582   1.205       .  T
C582        C583   1.412       .  S
C583        C584   1.205       .  T
C585        C586   1.205       .  T
C586        C587   1.412       .  S
C587        C588   1.205       .  T
C589        C590   1.205       .  T
C590        C591   1.412       .  S
C591        C592   1.205       .  T
