geometry optimzed in LAMMPS
_audit_creation_date              2020-12-01 
_audit_creation_method            'lammps2cif' 
_symmetry_space_group_name_H-M    'P1' 
_symmetry_Int_Tables_number       1 
_symmetry_cell_setting            triclinic 
loop_ 
_symmetry_equiv_pos_as_xyz 
  x,y,z 
_cell_length_a                    45.75819982 
_cell_length_b                    45.72923956853633 
_cell_length_c                    33.60399830724253 
_cell_angle_alpha                 89.9404297744848 
_cell_angle_beta                  90.05966000294185 
_cell_angle_gamma                 126.81997216881165 
loop_ 
_atom_site_label 
_atom_site_type_symbol 
_atom_site_fract_x 
_atom_site_fract_y 
_atom_site_fract_z 
_atom_site_charge 
C1          C  0.51935721  0.84162932  0.00772230     0.79400
N2          N  0.51820277  0.85580903  0.04261214    -0.78900
C3          C  0.51297727  0.88204242  0.04280618     0.81800
N4          N  0.51041872  0.89529163  0.34118793    -0.78900
C5          C  0.51263819  0.88196661  0.30615653     0.81900
N6          N  0.51778470  0.85566827  0.30621618    -0.80600
C7          C  0.37765183  0.92958226  0.00770781     0.79400
N8          N  0.39618237  0.94118285  0.30606559    -0.78900
C9          C  0.43291006  0.96705670  0.30562995     0.81800
N10         N  0.45155793  0.98011366  0.00710703    -0.78900
C11         C  0.43335679  0.96775871  0.04220615     0.81900
N12         N  0.39663122  0.94218782  0.04236280    -0.80600
N13         N  0.63557069  0.04596905  0.21969267    -0.07000
N14         N  0.65814654  0.06404891  0.24958968    -0.59100
N15         N  0.62272573  0.01100967  0.12828178    -0.06700
N16         N  0.63593937  0.00443094  0.09743124    -0.61200
N17         N  0.63551724  0.04557066  0.12879302    -0.06300
N18         N  0.65811161  0.06338160  0.09886238    -0.59100
N19         N  0.62267232  0.01138391  0.22074836    -0.05900
N20         N  0.63580352  0.00507037  0.25196083    -0.61600
C21         C  0.65805971  0.03828822  0.26930654     0.95200
C22         C  0.65814346  0.03748141  0.07972217     0.95000
N23         N  0.51152219  0.92569459  0.12813403    -0.08700
N24         N  0.49372517  0.90443765  0.09705442    -0.59700
N25         N  0.54494760  0.93567561  0.21994601    -0.05300
N26         N  0.55049132  0.92093401  0.24989211    -0.60900
N27         N  0.51136631  0.92574709  0.22061422    -0.07200
N28         N  0.49346859  0.90442717  0.25165264    -0.59900
N29         N  0.54503999  0.93546895  0.12914900    -0.04900
N30         N  0.55064233  0.92068257  0.09935651    -0.61000
Mn31       Mn  0.58439602  0.97279541  0.17455715     1.18400
C32         C  0.51850606  0.90144196  0.07975254     0.97300
C33         C  0.51826598  0.90156083  0.26926865     0.97900
N34         N  0.59934324  0.08634661  0.12757943    -0.07200
N35         N  0.61711058  0.10763076  0.09648864    -0.63500
N36         N  0.56590272  0.07669732  0.21933060    -0.06000
N37         N  0.56032757  0.09149543  0.24913698    -0.64200
N38         N  0.59947948  0.08663006  0.22012337    -0.06700
N39         N  0.61735316  0.10801785  0.25110407    -0.63800
N40         N  0.56583365  0.07658511  0.12853837    -0.05600
N41         N  0.56019290  0.09136899  0.09870995    -0.64500
Mn42       Mn  0.61866161  0.06726580  0.17400378     1.10700
C43         C  0.59231753  0.11064948  0.07913581     0.98500
C44         C  0.59255857  0.11094168  0.26853910     0.98600
N45         N  0.47530783  0.96643250  0.21936449    -0.06700
N46         N  0.45270166  0.94849511  0.24925480    -0.62100
N47         N  0.48847930  0.00119210  0.12783764    -0.06000
N48         N  0.47559633  0.00791391  0.09675515    -0.58800
N49         N  0.47560553  0.96661102  0.12845942    -0.07400
N50         N  0.45325804  0.94890503  0.09830149    -0.61700
N51         N  0.48825687  0.00103148  0.22015625    -0.06300
N52         N  0.47513180  0.00751391  0.25115526    -0.58900
Mn53       Mn  0.49223838  0.94495188  0.17411906     1.20200
Mn54       Mn  0.52657176  0.03943515  0.17400920     1.10100
Cl55       Cl  0.55547146  0.00610340  0.17416900    -0.86800
C56         C  0.45281588  0.97437462  0.26863980     0.95500
C57         C  0.45353583  0.97494812  0.07895630     0.95300
C58         C  0.59338010  0.17196401  0.00714705     0.79400
N59         N  0.59424253  0.15751594  0.30561401    -0.78900
C60         C  0.59814957  0.13034909  0.30552547     0.81800
N61         N  0.59980848  0.11655611  0.00718245    -0.78900
C62         C  0.59787591  0.13012910  0.04215853     0.81900
N63         N  0.59394024  0.15729047  0.04203972    -0.80600
C64         C  0.73372340  0.08385821  0.00802555     0.79400
N65         N  0.71493648  0.07217379  0.30650759    -0.78900
C66         C  0.67827128  0.04589764  0.30623572     0.81800
N67         N  0.65988885  0.03246802  0.00781616    -0.78900
C68         C  0.67827292  0.04485786  0.04284342     0.81900
N69         N  0.71496203  0.07086910  0.04279728    -0.80600
N70         N  0.97794277  0.46226312  0.20995128    -0.07000
N71         N  0.95680887  0.44439030  0.24109093    -0.59100
N72         N  0.98786231  0.49610711  0.11844177    -0.06700
N73         N  0.97331514  0.50183768  0.08848896    -0.61200
N74         N  0.97817028  0.46259925  0.11743491    -0.06300
N75         N  0.95723345  0.44493852  0.08611623    -0.59100
N76         N  0.98758710  0.49575169  0.20905176    -0.05900
N77         N  0.97284482  0.50127353  0.23891649    -0.61600
C78         C  0.95376749  0.46913023  0.25848203     0.95200
C79         C  0.95435341  0.46981199  0.06873496     0.95000
N80         N  0.09755735  0.58705147  0.11880407    -0.07200
N81         N  0.11550109  0.60982487  0.08902123    -0.59700
N82         N  0.06261138  0.57342737  0.21036480    -0.05300
N83         N  0.05588339  0.58628855  0.24145359    -0.60900
N84         N  0.09719608  0.58640965  0.20972275    -0.07200
N85         N  0.11490002  0.60881751  0.23981080    -0.59900
N86         N  0.06296415  0.57401916  0.11789084    -0.04900
N87         N  0.05648396  0.58721376  0.08686589    -0.61000
Mn88       Mn  0.02464542  0.53534539  0.16391619     1.18400
C89         C  0.08964740  0.60971448  0.06951460     0.97300
C90         C  0.08887649  0.60844389  0.25922334     0.97900
N91         N  0.01856510  0.42630921  0.11823847    -0.07200
N92         N  0.00044866  0.40349940  0.08855787    -0.63500
N93         N  0.05327102  0.43922789  0.20991366    -0.06000
N94         N  0.05975484  0.42616721  0.24109614    -0.64200
N95         N  0.01871752  0.42633037  0.20904963    -0.06700
N96         N  0.00079678  0.40379675  0.23897690    -0.63800
N97         N  0.05313563  0.43928725  0.11720859    -0.05600
N98         N  0.05942034  0.42600660  0.08612357    -0.64500
Mn99       Mn  0.99719872  0.44320025  0.16367672     1.10700
C100        C  0.02614362  0.40352172  0.06889692     0.98500
C101        C  0.02661280  0.40394672  0.25859438     0.98600
N102        N  0.13810019  0.55046428  0.21026328    -0.06700
N103        N  0.15912475  0.56804319  0.24158114    -0.62100
N104        N  0.12840317  0.51730011  0.11844745    -0.06000
N105        N  0.14309540  0.51170369  0.08861063    -0.58800
N106        N  0.13824375  0.55087617  0.11762014    -0.07400
N107        N  0.15945994  0.56870920  0.08648513    -0.61700
N108        N  0.12844986  0.51697465  0.20904430    -0.06300
N109        N  0.14311946  0.51119631  0.23882516    -0.58900
Mn110      Mn  0.11898117  0.56993733  0.16411548     1.20200
Mn111      Mn  0.09143857  0.47768671  0.16361731     1.10100
Cl112      Cl  0.05808148  0.50655414  0.16381772    -0.86800
C113        C  0.16212869  0.54315291  0.25872311     0.95500
C114        C  0.16233571  0.54384462  0.06906293     0.95300
C115        C  0.21909882  0.53815146  0.99761338     0.79400
N116        N  0.20605696  0.54087379  0.29598574    -0.78900
C117        C  0.18144570  0.54829179  0.29563968     0.81800
N118        N  0.16904328  0.55204800  0.33052991    -0.78900
C119        C  0.18183798  0.54910620  0.03229599     0.81900
N120        N  0.20650956  0.54176347  0.03235420    -0.80600
C121        C  0.97618179  0.32881477  0.99662382     0.79400
N122        N  0.99025628  0.34728282  0.29525075    -0.78900
C123        C  0.01865443  0.38333650  0.29528562     0.81800
N124        N  0.03237843  0.40134706  0.99709470    -0.78900
C125        C  0.01813811  0.38305567  0.03202796     0.81900
N126        N  0.98966214  0.34696516  0.03160375    -0.80600
C127        C  0.89528496  0.47202849  0.99694323     0.79400
N128        N  0.90878743  0.46976978  0.29544975    -0.78900
C129        C  0.93436440  0.46365814  0.29533875     0.81800
N130        N  0.94759082  0.46115445  0.33031587    -0.78900
C131        C  0.93489942  0.46438636  0.03192051     0.81900
N132        N  0.90943441  0.47064340  0.03175672    -0.80600
C133        C  0.13759344  0.68416563  0.99664801     0.79400
N134        N  0.12379349  0.66538605  0.29542106    -0.78900
C135        C  0.09642851  0.62903940  0.29575487     0.81800
N136        N  0.08332426  0.61111946  0.99768565    -0.78900
C137        C  0.09717397  0.62977127  0.03245860     0.81900
N138        N  0.12471920  0.66614013  0.03178573    -0.80600
N139        N  0.52227721  0.43304923  0.11915204    -0.07000
N140        N  0.50510179  0.41176139  0.08790785    -0.59100
N141        N  0.55621118  0.44387004  0.21075660    -0.06700
N142        N  0.56270619  0.42974539  0.24051776    -0.61200
N143        N  0.52218376  0.43266899  0.21163801    -0.06300
N144        N  0.50492171  0.41107538  0.24267254    -0.59100
N145        N  0.55632893  0.44429507  0.12004790    -0.05900
N146        N  0.56293578  0.43052969  0.09006431    -0.61600
C147        C  0.53087745  0.41037632  0.07041479     0.95200
C148        C  0.53057974  0.40935637  0.25998974     0.95000
N149        N  0.64369896  0.55460034  0.21202873    -0.07200
N150        N  0.66501057  0.57190564  0.24322511    -0.59700
N151        N  0.63301385  0.52084080  0.12032743    -0.05300
N152        N  0.64733429  0.51458973  0.09060907    -0.60900
N153        N  0.64403852  0.55482241  0.11952802    -0.07200
N154        N  0.66570040  0.57231517  0.08861348    -0.59900
N155        N  0.63269848  0.52062073  0.21115338    -0.04900
N156        N  0.64667892  0.51418311  0.24112789    -0.61000
Mn157      Mn  0.59503326  0.48191368  0.16556830     1.18400
C158        C  0.66669348  0.54628970  0.26074612     0.97300
C159        C  0.66766010  0.54683986  0.07125232     0.97900
N160        N  0.48365605  0.47106064  0.21195415    -0.07200
N161        N  0.46242721  0.45392460  0.24326980    -0.63500
N162        N  0.49442213  0.50502519  0.12029410    -0.06000
N163        N  0.48019895  0.51153885  0.09067788    -0.64200
N164        N  0.48334256  0.47103042  0.11927538    -0.06700
N165        N  0.46174540  0.45380042  0.08821267    -0.63800
N166        N  0.49475257  0.50507116  0.21092625    -0.05600
N167        N  0.48094299  0.51170446  0.24081294    -0.64500
Mn168      Mn  0.50148410  0.45055597  0.16550636     1.10700
C169        C  0.46092794  0.47971539  0.26062085     0.98500
C170        C  0.45988212  0.47946396  0.07107125     0.98600
N171        N  0.60508940  0.59257376  0.11929562    -0.06700
N172        N  0.62224545  0.61371769  0.08795274    -0.62100
N173        N  0.57106709  0.58160636  0.21073040    -0.06000
N174        N  0.56446998  0.59561384  0.24044449    -0.58800
N175        N  0.60506978  0.59276989  0.21178254    -0.07400
N176        N  0.62223040  0.61421307  0.24292921    -0.61700
N177        N  0.57105943  0.58136061  0.12012991    -0.06300
N178        N  0.56442835  0.59502301  0.09002711    -0.58900
Mn179      Mn  0.62581413  0.57505149  0.16567693     1.20200
Mn180      Mn  0.53237264  0.54374094  0.16550836     1.10100
Cl181      Cl  0.56366151  0.51278544  0.16556727    -0.86800
C182        C  0.59645273  0.61503812  0.07035345     0.95500
C183        C  0.59650640  0.61586508  0.26010146     0.95300
C184        C  0.53471486  0.35184415  0.99936922     0.79400
N185        N  0.53271211  0.36579355  0.03398724    -0.78900
C186        C  0.52617074  0.39106089  0.03370378     0.81800
N187        N  0.52302406  0.40357056  0.99853938    -0.78900
C188        C  0.52603675  0.39050001  0.29709641     0.81900
N189        N  0.53260642  0.36521797  0.29760375    -0.80600
C190        C  0.40462785  0.48679508  0.99825108     0.79400
N191        N  0.41694369  0.48322143  0.03335765    -0.78900
C192        C  0.44108642  0.47515394  0.03394646     0.81800
N193        N  0.45369284  0.47147910  0.99917710    -0.78900
C194        C  0.44167505  0.47525524  0.29732131     0.81900
N195        N  0.41761035  0.48335869  0.29705039    -0.80600
C196        C  0.72555217  0.54320568  0.99887013     0.79400
N197        N  0.71143954  0.54484583  0.29748848    -0.78900
C198        C  0.68604085  0.55118725  0.29756611     0.81800
N199        N  0.67349740  0.55436843  0.99932015    -0.78900
C200        C  0.68673129  0.55169235  0.03421810     0.81900
N201        N  0.71225859  0.54546655  0.03389748    -0.80600
C202        C  0.59061449  0.67211278  0.99928410     0.79400
N203        N  0.59344193  0.65872181  0.03388950    -0.78900
C204        C  0.60109127  0.63432011  0.03367869     0.81800
N205        N  0.60463359  0.62210831  0.99855940    -0.78900
C206        C  0.60088445  0.63467085  0.29710047     0.81900
N207        N  0.59305338  0.65898949  0.29757163    -0.80600
C208        C  0.81671602  0.47586738  0.02304624    -0.23300
C209        C  0.82326168  0.50290915  0.99666904     0.08600
C210        C  0.85272258  0.51900086  0.30315645     0.09100
C211        C  0.87530187  0.50779059  0.30351822    -0.18200
C212        C  0.86902289  0.48080097  0.99675389    -0.28700
C213        C  0.83885232  0.46412682  0.02309573     0.17400
C214        C  0.79821024  0.51320335  0.99691058     0.11400
C215        C  0.86023266  0.54792580  0.27417330    -0.13000
H216        H  0.89837664  0.52063526  0.28337773     0.11600
C217        C  0.82801152  0.43291373  0.05039848    -0.23800
H218        H  0.79361503  0.46324713  0.04314912     0.07300
C219        C  0.76524977  0.49298046  0.30861348     0.03600
C220        C  0.74240211  0.50385606  0.30946890    -0.21100
C221        C  0.75167220  0.53432301  0.99836198    -0.13400
C222        C  0.78503594  0.55486376  0.01966905     0.12300
C223        C  0.80775467  0.54379271  0.01887463    -0.23800
C224        C  0.75427286  0.45997805  0.28467504    -0.06900
H225        H  0.71684914  0.48814746  0.29317561     0.13900
C226        C  0.79830433  0.58923649  0.04224584    -0.17000
H227        H  0.83335647  0.55940240  0.03509044     0.08200
H228        H  0.79902131  0.40967201  0.04487877     0.06000
H229        H  0.83094795  0.44173774  0.08184052     0.07200
H230        H  0.84410976  0.42239170  0.04581929     0.06300
H231        H  0.86574664  0.57179288  0.29065154     0.01200
H232        H  0.83620953  0.53675166  0.25449718     0.01600
H233        H  0.88426730  0.55754150  0.25512894     0.05100
H234        H  0.72772939  0.44740953  0.26934042     0.04100
H235        H  0.75158217  0.43909084  0.30457105    -0.01600
H236        H  0.77529969  0.46798035  0.26174108    -0.00200
H237        H  0.80089206  0.58527147  0.07430725     0.03500
H238        H  0.78010796  0.59752385  0.03926472     0.05400
H239        H  0.82551929  0.61213726  0.03076069     0.06300
C240        C  0.26661807  0.49414138  0.31121130    -0.23300
C241        C  0.29896722  0.51739434  0.99946273     0.08600
C242        C  0.30470742  0.54694450  0.02083491     0.09100
C243        C  0.27783358  0.55267750  0.02002645    -0.18200
C244        C  0.24552571  0.52966734  0.99810946    -0.28700
C245        C  0.23950216  0.49953128  0.31064860     0.17400
C246        C  0.32618154  0.50982540  0.99980694     0.11400
C247        C  0.33919036  0.57237080  0.04438364    -0.13000
H248        H  0.28226901  0.57556341  0.03613167     0.11600
C249        C  0.20442334  0.47157050  0.28908466    -0.23800
H250        H  0.26220756  0.47116278  0.29532680     0.07300
C251        C  0.32374096  0.48508231  0.02718617     0.03600
C252        C  0.34991507  0.47840316  0.02609929    -0.21100
C253        C  0.37823788  0.49556412  0.99791805    -0.13400
C254        C  0.38087802  0.52085800  0.30410898     0.12300
C255        C  0.35470496  0.52758375  0.30546120    -0.23800
C256        C  0.29347490  0.46574762  0.05747690    -0.06900
H257        H  0.34791847  0.45921365  0.04701354     0.13900
C258        C  0.41173092  0.54185948  0.27459986    -0.17000
H259        H  0.35641498  0.54679746  0.28482591     0.08200
H260        H  0.19296159  0.44392722  0.30083333     0.06000
H261        H  0.21002005  0.47223851  0.25682650     0.07200
H262        H  0.18309033  0.47567093  0.29286362     0.06300
H263        H  0.36317402  0.58581536  0.02424261     0.01200
H264        H  0.34188351  0.55675033  0.06748445     0.01600
H265        H  0.33926778  0.59401619  0.05947443     0.05100
H266        H  0.29566152  0.44742273  0.07681271     0.04100
H267        H  0.26665494  0.44893702  0.04211213    -0.01600
H268        H  0.29458932  0.48609429  0.07675445    -0.00200
H269        H  0.40994451  0.52299288  0.25228471     0.03500
H270        H  0.43833079  0.55665241  0.29039287     0.05400
H271        H  0.41081265  0.56235675  0.25809560     0.06300
C272        C  0.87813730  0.24571804  0.31586044    -0.23300
C273        C  0.87891327  0.21844733  0.00014538     0.08600
C274        C  0.91203682  0.22712079  0.01517411     0.09100
C275        C  0.94367635  0.26342871  0.01322188    -0.18200
C276        C  0.94271289  0.29094272  0.99636568    -0.28700
C277        C  0.90946886  0.28197725  0.31415625     0.17400
C278        C  0.84383853  0.18186964  0.00529685     0.11400
C279        C  0.91372030  0.19818620  0.03372094    -0.13000
H280        H  0.96918359  0.27045588  0.02513034     0.11600
C281        C  0.90531554  0.30994758  0.29740620    -0.23800
H282        H  0.85245069  0.23886425  0.30474747     0.07300
C283        C  0.82042627  0.17481873  0.03715606     0.03600
C284        C  0.78538612  0.14159316  0.03839175    -0.21100
C285        C  0.77308526  0.11514194  0.00845207    -0.13400
C286        C  0.79778397  0.12120475  0.31151190     0.12300
C287        C  0.83262987  0.15488292  0.30990995    -0.23800
C288        C  0.83211138  0.20282431  0.06928402    -0.06900
H289        H  0.76692849  0.13709728  0.06193630     0.13900
C290        C  0.78891093  0.09276454  0.28106028    -0.17000
H291        H  0.85110619  0.16024579  0.28594366     0.08200
H292        H  0.88368935  0.30876405  0.31409267     0.06000
H293        H  0.89716327  0.30370930  0.26563322     0.07200
H294        H  0.93040337  0.33836797  0.29949934     0.06300
H295        H  0.90531108  0.17646412  0.01154938     0.01200
H296        H  0.89506985  0.18595167  0.05971229     0.01600
H297        H  0.94172135  0.20955946  0.04406240     0.05100
H298        H  0.81058493  0.19280028  0.09221171     0.04100
H299        H  0.83806461  0.22814714  0.05612010    -0.01600
H300        H  0.85701679  0.20935246  0.08425982    -0.00200
H301        H  0.78766838  0.10205742  0.25099224     0.03500
H302        H  0.76293971  0.06566503  0.28715875     0.05400
H303        H  0.81065040  0.08886859  0.28126162     0.06300
C304        C  0.59879676  0.25622593  0.31478130    -0.23300
C305        C  0.57084927  0.25065552  0.00540374     0.08600
C306        C  0.55141847  0.22015496  0.03097892     0.09100
C307        C  0.56009114  0.19547736  0.03161083    -0.18200
C308        C  0.58767219  0.20055648  0.00712257    -0.28700
C309        C  0.60785494  0.23184806  0.31564656     0.17400
C310        C  0.56239762  0.27718479  0.00342056     0.11400
C311        C  0.52143801  0.21362570  0.05739203    -0.13000
H312        H  0.54466725  0.17161441  0.05066920     0.11600
C313        C  0.63992676  0.24132720  0.29087619    -0.23800
H314        H  0.61397731  0.28006740  0.29565071     0.07300
C315        C  0.58160861  0.30920294  0.02667884     0.03600
C316        C  0.57170127  0.33286085  0.02483974    -0.21100
C317        C  0.54309828  0.32527142  0.00015776    -0.13400
C318        C  0.52367058  0.29289655  0.31037904     0.12300
C319        C  0.53394051  0.26951973  0.31201341    -0.23800
C320        C  0.61240808  0.31824439  0.05350017    -0.06900
H321        H  0.58661544  0.35763826  0.04249764     0.13900
C322        C  0.49100094  0.28105014  0.28515893    -0.17000
H323        H  0.51904720  0.24460507  0.29456383     0.08200
H324        H  0.66417744  0.26931722  0.29853965     0.06000
H325        H  0.63357628  0.24061306  0.25883737     0.07200
H326        H  0.64766317  0.22287131  0.29592879     0.06300
H327        H  0.49953787  0.21038327  0.03891849     0.01200
H328        H  0.53258195  0.23715895  0.07782175     0.01600
H329        H  0.50909302  0.18857645  0.07570530     0.05100
H330        H  0.62445107  0.34426366  0.06978486     0.04100
H331        H  0.63431204  0.32103769  0.03554709    -0.01600
H332        H  0.60221240  0.29613547  0.07574646    -0.00200
H333        H  0.49718000  0.28025564  0.25340835     0.03500
H334        H  0.48240659  0.29898108  0.28806546     0.05400
H335        H  0.46736271  0.25323942  0.29433560     0.06300
C336        C  0.27834312  0.85967401  0.31069221    -0.23300
C337        C  0.26755925  0.83210084  0.00516968     0.08600
C338        C  0.29148167  0.83829448  0.03609087     0.09100
C339        C  0.32647651  0.87147234  0.03747131    -0.18200
C340        C  0.33833538  0.89852182  0.00836257    -0.28700
C341        C  0.31331204  0.89317255  0.31224031     0.17400
C342        C  0.23271399  0.79556919  0.99951216     0.11400
C343        C  0.28051717  0.80931366  0.06679645    -0.13000
H344        H  0.34531213  0.87539944  0.06025457     0.11600
C345        C  0.32208253  0.92210774  0.28250218    -0.23800
H346        H  0.25954141  0.85481937  0.28732712     0.07300
C347        C  0.19993327  0.78553992  0.01708848     0.03600
C348        C  0.16890031  0.74892931  0.01516303    -0.21100
C349        C  0.17024046  0.72244898  0.99607482    -0.13400
C350        C  0.20319579  0.73281677  0.31145644     0.12300
C351        C  0.23376013  0.76942369  0.31281050    -0.23800
C352        C  0.19804219  0.81333554  0.03831982    -0.06900
H353        H  0.14364368  0.74083022  0.02895415     0.13900
C354        C  0.20816286  0.70603540  0.29280659    -0.17000
H355        H  0.25929089  0.77735188  0.29991521     0.08200
H356        H  0.30071142  0.92649259  0.28382587     0.06000
H357        H  0.32253877  0.91299665  0.25204729     0.07200
H358        H  0.34843939  0.94891853  0.28842666     0.06300
H359        H  0.27449183  0.78451410  0.05210113     0.01200
H360        H  0.25583039  0.80210557  0.08289783     0.01600
H361        H  0.30247312  0.81871808  0.08902763     0.05100
H362        H  0.17033203  0.80096148  0.05040973     0.04100
H363        H  0.20497813  0.83539724  0.01729790    -0.01600
H364        H  0.21771054  0.82537309  0.06346051    -0.00200
H365        H  0.21433457  0.71231308  0.26064976     0.03500
H366        H  0.18419767  0.67715151  0.29596594     0.05400
H367        H  0.23142464  0.70863097  0.30735496     0.06300
C368        C  0.58562878  0.75074393  0.31084887    -0.23300
C369        C  0.55805917  0.74270020  0.00392272     0.08600
C370        C  0.54139500  0.71174145  0.02868865     0.09100
C371        C  0.55281530  0.68938910  0.02650692    -0.18200
C372        C  0.58057179  0.69735522  0.00016264    -0.28700
C373        C  0.59755632  0.72879116  0.30897995     0.17400
C374        C  0.54775483  0.76770084  0.00588111     0.11400
C375        C  0.51172144  0.70246058  0.05746389    -0.13000
H376        H  0.53975308  0.66533788  0.04525907     0.11600
C377        C  0.62935896  0.74123463  0.28197140    -0.23800
H378        H  0.59857447  0.77490416  0.29226947     0.07300
C379        C  0.56718933  0.79916644  0.03001520     0.03600
C380        C  0.55657217  0.82224193  0.03076715    -0.21100
C381        C  0.52715547  0.81465978  0.00768631    -0.13400
C382        C  0.50718273  0.78257092  0.31749946     0.12300
C383        C  0.51802723  0.75967216  0.31665953    -0.23800
C384        C  0.59922150  0.80843379  0.05470927    -0.06900
H385        H  0.57186796  0.84681545  0.04874885     0.13900
C386        C  0.47366286  0.77084165  0.29405928    -0.17000
H387        H  0.50295771  0.73513943  0.29858756     0.08200
H388        H  0.65243502  0.76986458  0.28934339     0.06000
H389        H  0.62123667  0.74014971  0.25055051     0.07200
H390        H  0.63977820  0.72489142  0.28493243     0.06300
H391        H  0.48826150  0.69784030  0.04094042     0.01200
H392        H  0.52229841  0.72528379  0.07878983     0.01600
H393        H  0.50170662  0.67736290  0.07475739     0.05100
H394        H  0.61129665  0.83397127  0.07199127     0.04100
H395        H  0.62075886  0.81226414  0.03505285    -0.01600
H396        H  0.59031739  0.78595688  0.07601918    -0.00200
H397        H  0.47880644  0.77048202  0.26184621     0.03500
H398        H  0.46514655  0.78870127  0.29869155     0.05400
H399        H  0.45041657  0.74288035  0.30335082     0.06300
C400        C  0.51935743  0.84162955  0.34105577     0.79400
N401        N  0.51820304  0.85580935  0.37594553    -0.78900
C402        C  0.51297740  0.88204271  0.37613954     0.81800
N403        N  0.51041882  0.89529166  0.67452132    -0.78900
C404        C  0.51263847  0.88196686  0.63948983     0.81900
N405        N  0.51778535  0.85566882  0.63954932    -0.80600
C406        C  0.37765179  0.92958223  0.34104133     0.79400
N407        N  0.39618266  0.94118352  0.63939903    -0.78900
C408        C  0.43291036  0.96705726  0.63896338     0.81800
N409        N  0.45155800  0.98011367  0.34044037    -0.78900
C410        C  0.43335685  0.96775874  0.37553952     0.81900
N411        N  0.39663126  0.94218771  0.37569623    -0.80600
N412        N  0.63557097  0.04596937  0.55302593    -0.07000
N413        N  0.65814677  0.06404912  0.58292298    -0.59100
N414        N  0.62272581  0.01100990  0.46161503    -0.06700
N415        N  0.63593939  0.00443113  0.43076452    -0.61200
N416        N  0.63551740  0.04557092  0.46212626    -0.06300
N417        N  0.65811162  0.06338182  0.43219551    -0.59100
N418        N  0.62267262  0.01138426  0.55408160    -0.05900
N419        N  0.63580374  0.00507066  0.58529414    -0.61600
C420        C  0.65805978  0.03828840  0.60263996     0.95200
C421        C  0.65814334  0.03748155  0.41305529     0.95000
N422        N  0.51152238  0.92569478  0.46146754    -0.08700
N423        N  0.49372539  0.90443788  0.43038789    -0.59700
N424        N  0.54494793  0.93567603  0.55327942    -0.05300
N425        N  0.55049172  0.92093450  0.58322553    -0.60900
N426        N  0.51136660  0.92574743  0.55394771    -0.07200
N427        N  0.49346897  0.90442756  0.58498618    -0.59900
N428        N  0.54504024  0.93546926  0.46248244    -0.04900
N429        N  0.55064258  0.92068291  0.43268996    -0.61000
Mn430      Mn  0.58439627  0.97279575  0.50789048     1.18400
C431        C  0.51850634  0.90144241  0.41308584     0.97300
C432        C  0.51826635  0.90156116  0.60260205     0.97900
N433        N  0.59934336  0.08634687  0.46091263    -0.07200
N434        N  0.61711060  0.10763095  0.42982178    -0.63500
N435        N  0.56590287  0.07669749  0.55266392    -0.06000
N436        N  0.56032764  0.09149542  0.58247042    -0.64200
N437        N  0.59947967  0.08663028  0.55345656    -0.06700
N438        N  0.61735317  0.10801779  0.58443744    -0.63800
N439        N  0.56583364  0.07658515  0.46187157    -0.05600
N440        N  0.56019290  0.09136908  0.43204325    -0.64500
Mn441      Mn  0.61866179  0.06726602  0.50733701     1.10700
C442        C  0.59231749  0.11064961  0.41246899     0.98500
C443        C  0.59255855  0.11094157  0.60187260     0.98600
N444        N  0.47530801  0.96643275  0.55269794    -0.06700
N445        N  0.45270198  0.94849550  0.58258842    -0.62100
N446        N  0.48847946  0.00119221  0.46117091    -0.06000
N447        N  0.47559639  0.00791392  0.43008847    -0.58800
N448        N  0.47560562  0.96661109  0.46179283    -0.07400
N449        N  0.45325808  0.94890503  0.43163495    -0.61700
N450        N  0.48825699  0.00103169  0.55348949    -0.06300
N451        N  0.47513198  0.00751423  0.58448848    -0.58900
Mn452      Mn  0.49223858  0.94495212  0.50745257     1.20200
Mn453      Mn  0.52657183  0.03943532  0.50734249     1.10100
Cl454      Cl  0.55547172  0.00610367  0.50750235    -0.86800
C455        C  0.45281605  0.97437502  0.60197312     0.95500
C456        C  0.45353590  0.97494811  0.41228964     0.95300
C457        C  0.59338002  0.17196421  0.34048027     0.79400
N458        N  0.59424210  0.15751552  0.63894760    -0.78900
C459        C  0.59814939  0.13034886  0.63885897     0.81800
N460        N  0.59980825  0.11655617  0.34051560    -0.78900
C461        C  0.59787574  0.13012921  0.37549169     0.81900
N462        N  0.59394022  0.15729071  0.37537297    -0.80600
C463        C  0.73372321  0.08385840  0.34135865     0.79400
N464        N  0.71493661  0.07217398  0.63984090    -0.78900
C465        C  0.67827145  0.04589772  0.63956898     0.81800
N466        N  0.65988858  0.03246800  0.34114938    -0.78900
C467        C  0.67827276  0.04485794  0.37617659     0.81900
N468        N  0.71496192  0.07086923  0.37613038    -0.80600
N469        N  0.97794295  0.46226333  0.54328460    -0.07000
N470        N  0.95680902  0.44439051  0.57442423    -0.59100
N471        N  0.98786240  0.49610725  0.45177504    -0.06700
N472        N  0.97331514  0.50183784  0.42182231    -0.61200
N473        N  0.97817023  0.46259937  0.45076814    -0.06300
N474        N  0.95723332  0.44493864  0.41944952    -0.59100
N475        N  0.98758707  0.49575179  0.54238497    -0.05900
N476        N  0.97284504  0.50127379  0.57224987    -0.61600
C477        C  0.95376773  0.46913050  0.59181538     0.95200
C478        C  0.95435337  0.46981217  0.40206828     0.95000
N479        N  0.09755744  0.58705129  0.45213739    -0.07200
N480        N  0.11550129  0.60982476  0.42235459    -0.59700
N481        N  0.06261153  0.57342739  0.54369809    -0.05300
N482        N  0.05588354  0.58628867  0.57478674    -0.60900
N483        N  0.09719625  0.58640968  0.54305609    -0.07200
N484        N  0.11490030  0.60881749  0.57314416    -0.59900
N485        N  0.06296435  0.57401928  0.45122418    -0.04900
N486        N  0.05648424  0.58721388  0.42019916    -0.61000
Mn487      Mn  0.02464554  0.53534547  0.49724946     1.18400
C488        C  0.08964767  0.60971451  0.40284795     0.97300
C489        C  0.08887674  0.60844391  0.59255656     0.97900
N490        N  0.01856497  0.42630923  0.45157179    -0.07200
N491        N  0.00044850  0.40349947  0.42189120    -0.63500
N492        N  0.05327092  0.43922785  0.54324696    -0.06000
N493        N  0.05975467  0.42616713  0.57442942    -0.64200
N494        N  0.01871741  0.42633041  0.54238300    -0.06700
N495        N  0.00079669  0.40379689  0.57231036    -0.63800
N496        N  0.05313551  0.43928716  0.45054184    -0.05600
N497        N  0.05942013  0.42600645  0.41945686    -0.64500
Mn498      Mn  0.99719871  0.44320038  0.49700996     1.10700
C499        C  0.02614339  0.40352165  0.40223023     0.98500
C500        C  0.02661267  0.40394678  0.59192782     0.98600
N501        N  0.13810013  0.55046409  0.54359666    -0.06700
N502        N  0.15912477  0.56804298  0.57491442    -0.62100
N503        N  0.12840315  0.51729991  0.45178078    -0.06000
N504        N  0.14309533  0.51170343  0.42194395    -0.58800
N505        N  0.13824372  0.55087595  0.45095344    -0.07400
N506        N  0.15946006  0.56870904  0.41981846    -0.61700
N507        N  0.12844975  0.51697443  0.54237764    -0.06300
N508        N  0.14311942  0.51119605  0.57215838    -0.58900
Mn509      Mn  0.11898120  0.56993719  0.49744882     1.20200
Mn510      Mn  0.09143847  0.47768656  0.49695060     1.10100
Cl511      Cl  0.05808147  0.50655408  0.49715101    -0.86800
C512        C  0.16212850  0.54315260  0.59205650     0.95500
C513        C  0.16233565  0.54384436  0.40239618     0.95300
C514        C  0.21909884  0.53815140  0.33094669     0.79400
N515        N  0.20605678  0.54087351  0.62931905    -0.78900
C516        C  0.18144559  0.54829166  0.62897307     0.81800
N517        N  0.16904314  0.55204787  0.66386335    -0.78900
C518        C  0.18183785  0.54910587  0.36562916     0.81900
N519        N  0.20650950  0.54176326  0.36568749    -0.80600
C520        C  0.97618152  0.32881487  0.32995705     0.79400
N521        N  0.99025611  0.34728285  0.62858412    -0.78900
C522        C  0.01865426  0.38333652  0.62861904     0.81800
N523        N  0.03237832  0.40134706  0.33042800    -0.78900
C524        C  0.01813790  0.38305571  0.36536124     0.81900
N525        N  0.98966193  0.34696524  0.36493701    -0.80600
C526        C  0.89528530  0.47202928  0.33027657     0.79400
N527        N  0.90878760  0.46976988  0.62878314    -0.78900
C528        C  0.93436465  0.46365836  0.62867216     0.81800
N529        N  0.94759110  0.46115471  0.66364928    -0.78900
C530        C  0.93489937  0.46438657  0.36525384     0.81900
N531        N  0.90943454  0.47064389  0.36509009    -0.80600
C532        C  0.13759343  0.68416566  0.32998137     0.79400
N533        N  0.12379392  0.66538615  0.62875430    -0.78900
C534        C  0.09642891  0.62903948  0.62908812     0.81800
N535        N  0.08332437  0.61111946  0.33101902    -0.78900
C536        C  0.09717407  0.62977127  0.36579196     0.81900
N537        N  0.12471934  0.66614009  0.36511905    -0.80600
N538        N  0.52227729  0.43304931  0.45248561    -0.07000
N539        N  0.50510192  0.41176165  0.42124133    -0.59100
N540        N  0.55621116  0.44387008  0.54408996    -0.06700
N541        N  0.56270607  0.42974532  0.57385112    -0.61200
N542        N  0.52218381  0.43266906  0.54497138    -0.06300
N543        N  0.50492176  0.41107542  0.57600594    -0.59100
N544        N  0.55632908  0.44429532  0.45338131    -0.05900
N545        N  0.56293584  0.43052986  0.42339773    -0.61600
C546        C  0.53087753  0.41037646  0.40374825     0.95200
C547        C  0.53057959  0.40935605  0.59332292     0.95000
N548        N  0.64369902  0.55460042  0.54536226    -0.07200
N549        N  0.66501067  0.57190571  0.57655861    -0.59700
N550        N  0.63301403  0.52084102  0.45366094    -0.05300
N551        N  0.64733441  0.51458989  0.42394250    -0.60900
N552        N  0.64403861  0.55482257  0.45286138    -0.07200
N553        N  0.66570043  0.57231533  0.42194680    -0.59900
N554        N  0.63269853  0.52062079  0.54448687    -0.04900
N555        N  0.64667881  0.51418301  0.57446140    -0.61000
Mn556      Mn  0.59503332  0.48191384  0.49890175     1.18400
C557        C  0.66669349  0.54628966  0.59407957     0.97300
C558        C  0.66766024  0.54684006  0.40458577     0.97900
N559        N  0.48365604  0.47106072  0.54528750    -0.07200
N560        N  0.46242747  0.45392493  0.57660338    -0.63500
N561        N  0.49442229  0.50502528  0.45362751    -0.06000
N562        N  0.48019923  0.51153901  0.42401117    -0.64200
N563        N  0.48334270  0.47103054  0.45260887    -0.06700
N564        N  0.46174565  0.45380055  0.42154605    -0.63800
N565        N  0.49475271  0.50507127  0.54425966    -0.05600
N566        N  0.48094317  0.51170477  0.57414627    -0.64500
Mn567      Mn  0.50148422  0.45055606  0.49883983     1.10700
C568        C  0.46092821  0.47971578  0.59395427     0.98500
C569        C  0.45988245  0.47946411  0.40440455     0.98600
N570        N  0.60508955  0.59257401  0.45262894    -0.06700
N571        N  0.62224546  0.61371779  0.42128601    -0.62100
N572        N  0.57106718  0.58160649  0.54406379    -0.06000
N573        N  0.56446992  0.59561371  0.57377801    -0.58800
N574        N  0.60506981  0.59276983  0.54511608    -0.07400
N575        N  0.62223040  0.61421304  0.57626273    -0.61700
N576        N  0.57105944  0.58136071  0.45346327    -0.06300
N577        N  0.56442834  0.59502308  0.42336056    -0.58900
Mn578      Mn  0.62581422  0.57505164  0.49901031     1.20200
Mn579      Mn  0.53237270  0.54374106  0.49884175     1.10100
Cl580      Cl  0.56366163  0.51278557  0.49890073    -0.86800
C581        C  0.59645266  0.61503812  0.40368672     0.95500
C582        C  0.59650627  0.61586477  0.59343512     0.95300
C583        C  0.53471533  0.35184468  0.33270257     0.79400
N584        N  0.53271242  0.36579392  0.36732059    -0.78900
C585        C  0.52617104  0.39106124  0.36703716     0.81800
N586        N  0.52302421  0.40357083  0.33187280    -0.78900
C587        C  0.52603662  0.39049980  0.63042966     0.81900
N588        N  0.53260628  0.36521773  0.63093702    -0.80600
C589        C  0.40462815  0.48679526  0.33158458     0.79400
N590        N  0.41694397  0.48322159  0.36669109    -0.78900
C591        C  0.44108665  0.47515403  0.36727979     0.81800
N592        N  0.45369308  0.47147924  0.33251040    -0.78900
C593        C  0.44167531  0.47525560  0.63065472     0.81900
N594        N  0.41761088  0.48335938  0.63038374    -0.80600
C595        C  0.72555256  0.54320657  0.33220325     0.79400
N596        N  0.71143933  0.54484562  0.63082195    -0.78900
C597        C  0.68604078  0.55118720  0.63089960     0.81800
N598        N  0.67349734  0.55436858  0.33265354    -0.78900
C599        C  0.68673138  0.55169267  0.36755147     0.81900
N600        N  0.71225896  0.54546734  0.36723070    -0.80600
C601        C  0.59061454  0.67211290  0.33261725     0.79400
N602        N  0.59344203  0.65872190  0.36722263    -0.78900
C603        C  0.60109116  0.63432003  0.36701191     0.81800
N604        N  0.60463357  0.62210831  0.33189262    -0.78900
C605        C  0.60088429  0.63467054  0.63043410     0.81900
N606        N  0.59305305  0.65898902  0.63090530    -0.80600
C607        C  0.81671662  0.47586864  0.35637895    -0.23300
C608        C  0.82326292  0.50291108  0.33000231     0.08600
C609        C  0.85272164  0.51899985  0.63648958     0.09100
C610        C  0.87530105  0.50778979  0.63685130    -0.18200
C611        C  0.86902339  0.48080197  0.33008727    -0.28700
C612        C  0.83885271  0.46412779  0.35642861     0.17400
C613        C  0.79821145  0.51320521  0.33024355     0.11400
C614        C  0.86023117  0.54792435  0.60750600    -0.13000
H615        H  0.89837566  0.52063457  0.61671067     0.11600
C616        C  0.82801096  0.43291390  0.38373049    -0.23800
H617        H  0.79361560  0.46324838  0.37648143     0.07300
C618        C  0.76524931  0.49298002  0.64194661     0.03600
C619        C  0.74240164  0.50385557  0.64280212    -0.21100
C620        C  0.75167298  0.53432432  0.33169497    -0.13400
C621        C  0.78503701  0.55486552  0.35300177     0.12300
C622        C  0.80775572  0.54379459  0.35220737    -0.23800
C623        C  0.75427270  0.45997813  0.61800770    -0.06900
H624        H  0.71684862  0.48814707  0.62650842     0.13900
C625        C  0.79830562  0.58923857  0.37557808    -0.17000
H626        H  0.83335780  0.55940477  0.36842324     0.08200
H627        H  0.79902079  0.40967235  0.37820969     0.06000
H628        H  0.83094704  0.44173735  0.41517260     0.07200
H629        H  0.84410946  0.42239210  0.37915163     0.06300
H630        H  0.86574475  0.57179148  0.62398375     0.01200
H631        H  0.83620756  0.53674977  0.58783054     0.01600
H632        H  0.88426559  0.55754007  0.58846128     0.05100
H633        H  0.72772932  0.44740985  0.60267286     0.04100
H634        H  0.75158219  0.43909104  0.63790350    -0.01600
H635        H  0.77529982  0.46798078  0.59507386    -0.00200
H636        H  0.80089331  0.58527385  0.40763955     0.03500
H637        H  0.78010897  0.59752543  0.37259702     0.05400
H638        H  0.82552062  0.61213963  0.36409258     0.06300
C639        C  0.26661870  0.49414199  0.64454413    -0.23300
C640        C  0.29896748  0.51739459  0.33279643     0.08600
C641        C  0.30470734  0.54694436  0.35416899     0.09100
C642        C  0.27783344  0.55267725  0.35336034    -0.18200
C643        C  0.24552588  0.52966747  0.33144273    -0.28700
C644        C  0.23950267  0.49953167  0.64398156     0.17400
C645        C  0.32618184  0.50982567  0.33314069     0.11400
C646        C  0.33918985  0.57237014  0.37771860    -0.13000
H647        H  0.28226844  0.57556264  0.36946644     0.11600
C648        C  0.20442398  0.47157121  0.62241727    -0.23800
H649        H  0.26220843  0.47116340  0.62865911     0.07300
C650        C  0.32374104  0.48508230  0.36051943     0.03600
C651        C  0.34991510  0.47840299  0.35943249    -0.21100
C652        C  0.37823838  0.49556451  0.33125174    -0.13400
C653        C  0.38087855  0.52085868  0.63744212     0.12300
C654        C  0.35470540  0.52758438  0.63879425    -0.23800
C655        C  0.29347491  0.46574754  0.39080994    -0.06900
H656        H  0.34791812  0.45921308  0.38034630     0.13900
C657        C  0.41173165  0.54186020  0.60793321    -0.17000
H658        H  0.35641512  0.54679764  0.61815861     0.08200
H659        H  0.19296235  0.44392800  0.63416573     0.06000
H660        H  0.21002060  0.47223948  0.59015899     0.07200
H661        H  0.18309065  0.47567118  0.62619653     0.06300
H662        H  0.36317386  0.58581494  0.35757808     0.01200
H663        H  0.34188248  0.55674909  0.40081917     0.01600
H664        H  0.33926690  0.59401501  0.39281016     0.05100
H665        H  0.29566138  0.44742249  0.41014553     0.04100
H666        H  0.26665507  0.44893733  0.37544506    -0.01600
H667        H  0.29458937  0.48609420  0.41008774    -0.00200
H668        H  0.40994526  0.52299358  0.58561826     0.03500
H669        H  0.43833150  0.55665322  0.62372668     0.05400
H670        H  0.41081368  0.56235747  0.59142868     0.06300
C671        C  0.87813714  0.24571783  0.64919389    -0.23300
C672        C  0.87891291  0.21844755  0.33347822     0.08600
C673        C  0.91203638  0.22712086  0.34850719     0.09100
C674        C  0.94367593  0.26342870  0.34655497    -0.18200
C675        C  0.94271257  0.29094280  0.32969889    -0.28700
C676        C  0.90946857  0.28197718  0.64748942     0.17400
C677        C  0.84383819  0.18186987  0.33862981     0.11400
C678        C  0.91371958  0.19818619  0.36705442    -0.13000
H679        H  0.96918315  0.27045586  0.35846376     0.11600
C680        C  0.90531510  0.30994727  0.63073895    -0.23800
H681        H  0.85245043  0.23886362  0.63808076     0.07300
C682        C  0.82042581  0.17481914  0.37048870     0.03600
C683        C  0.78538573  0.14159345  0.37172450    -0.21100
C684        C  0.77308507  0.11514213  0.34178495    -0.13400
C685        C  0.79778415  0.12120478  0.64484511     0.12300
C686        C  0.83262998  0.15488301  0.64324324    -0.23800
C687        C  0.83211064  0.20282467  0.40261664    -0.06900
H688        H  0.76692815  0.13709778  0.39526852     0.13900
C689        C  0.78891131  0.09276449  0.61439381    -0.17000
H690        H  0.85110633  0.16024585  0.61927687     0.08200
H691        H  0.88368880  0.30876372  0.64742515     0.06000
H692        H  0.89716255  0.30370860  0.59896595     0.07200
H693        H  0.93040286  0.33836756  0.63283200     0.06300
H694        H  0.90531052  0.17646408  0.34488303     0.01200
H695        H  0.89506901  0.18595188  0.39304580     0.01600
H696        H  0.94172051  0.20955932  0.37739611     0.05100
H697        H  0.81058385  0.19280049  0.42554403     0.04100
H698        H  0.83806368  0.22814730  0.38945257    -0.01600
H699        H  0.85701612  0.20935304  0.41759259    -0.00200
H700        H  0.78766863  0.10205697  0.58432574     0.03500
H701        H  0.76294008  0.06566508  0.62049258     0.05400
H702        H  0.81065099  0.08886868  0.61459538     0.06300
C703        C  0.59879625  0.25622561  0.64811534    -0.23300
C704        C  0.57084962  0.25065604  0.33873698     0.08600
C705        C  0.55141860  0.22015538  0.36431202     0.09100
C706        C  0.56009129  0.19547771  0.36494405    -0.18200
C707        C  0.58767237  0.20055685  0.34045579    -0.28700
C708        C  0.60785451  0.23184781  0.64898070     0.17400
C709        C  0.56239792  0.27718522  0.33675367     0.11400
C710        C  0.52143802  0.21362636  0.39072476    -0.13000
H711        H  0.54466728  0.17161460  0.38400218     0.11600
C712        C  0.63992679  0.24132729  0.62421105    -0.23800
H713        H  0.61397736  0.28006763  0.62898513     0.07300
C714        C  0.58160847  0.30920293  0.36001272     0.03600
C715        C  0.57170126  0.33286087  0.35817371    -0.21100
C716        C  0.54309882  0.32527193  0.33349100    -0.13400
C717        C  0.52366986  0.29289618  0.64371316     0.12300
C718        C  0.53393966  0.26951914  0.64534765    -0.23800
C719        C  0.61240739  0.31824394  0.38683485    -0.06900
H720        H  0.58661526  0.35763798  0.37583196     0.13900
C721        C  0.49099985  0.28104957  0.61849359    -0.17000
H722        H  0.51904655  0.24460480  0.62789851     0.08200
H723        H  0.66417755  0.26931719  0.63187509     0.06000
H724        H  0.63357678  0.24061352  0.59217220     0.07200
H725        H  0.64766318  0.22287143  0.62926387     0.06300
H726        H  0.49953801  0.21038420  0.37225105     0.01200
H727        H  0.53258203  0.23715976  0.41115437     0.01600
H728        H  0.50909280  0.18857716  0.40903788     0.05100
H729        H  0.62445027  0.34426303  0.40311989     0.04100
H730        H  0.63431152  0.32103737  0.36888202    -0.01600
H731        H  0.60221157  0.29613476  0.40908085    -0.00200
H732        H  0.49717859  0.28025444  0.58674316     0.03500
H733        H  0.48240560  0.29898074  0.62139950     0.05400
H734        H  0.46736192  0.25323892  0.62767084     0.06300
C735        C  0.27834321  0.85967447  0.64402551    -0.23300
C736        C  0.26755914  0.83210086  0.33850330     0.08600
C737        C  0.29148175  0.83829462  0.36942451     0.09100
C738        C  0.32647654  0.87147236  0.37080469    -0.18200
C739        C  0.33833547  0.89852181  0.34169605    -0.28700
C740        C  0.31331210  0.89317288  0.64557373     0.17400
C741        C  0.23271385  0.79556926  0.33284566     0.11400
C742        C  0.28051769  0.80931439  0.40013077    -0.13000
H743        H  0.34531235  0.87539922  0.39358780     0.11600
C744        C  0.32208275  0.92210784  0.61583530    -0.23800
H745        H  0.25954132  0.85482011  0.62066040     0.07300
C746        C  0.19993303  0.78553997  0.35042164     0.03600
C747        C  0.16890004  0.74892937  0.34849615    -0.21100
C748        C  0.17024030  0.72244905  0.32940818    -0.13400
C749        C  0.20319616  0.73281698  0.64478946     0.12300
C750        C  0.23376052  0.76942394  0.64614352    -0.23800
C751        C  0.19804184  0.81333570  0.37165238    -0.06900
H752        H  0.14364330  0.74083018  0.36228737     0.13900
C753        C  0.20816284  0.70603522  0.62613955    -0.17000
H754        H  0.25929145  0.77735208  0.63324799     0.08200
H755        H  0.30071189  0.92649288  0.61715929     0.06000
H756        H  0.32253889  0.91299646  0.58538027     0.07200
H757        H  0.34843952  0.94891854  0.62175981     0.06300
H758        H  0.27449221  0.78451473  0.38543619     0.01200
H759        H  0.25583110  0.80210654  0.41623219     0.01600
H760        H  0.30247403  0.81871928  0.42236214     0.05100
H761        H  0.17033159  0.80096176  0.38374200     0.04100
H762        H  0.20497796  0.83539727  0.35063014    -0.01600
H763        H  0.21771024  0.82537346  0.39679297    -0.00200
H764        H  0.21433430  0.71231280  0.59398272     0.03500
H765        H  0.18419767  0.67715116  0.62929904     0.05400
H766        H  0.23142461  0.70863049  0.64068733     0.06300
C767        C  0.58562843  0.75074363  0.64418171    -0.23300
C768        C  0.55805969  0.74270067  0.33725599     0.08600
C769        C  0.54139508  0.71174150  0.36202165     0.09100
C770        C  0.55281538  0.68938915  0.35983986    -0.18200
C771        C  0.58057200  0.69735538  0.33349586    -0.28700
C772        C  0.59755597  0.72879088  0.64231297     0.17400
C773        C  0.54775533  0.76770143  0.33921433     0.11400
C774        C  0.51172155  0.70246060  0.39079707    -0.13000
H775        H  0.53975264  0.66533738  0.37859173     0.11600
C776        C  0.62935810  0.74123378  0.61530408    -0.23800
H777        H  0.59857400  0.77490394  0.62560164     0.07300
C778        C  0.56718970  0.79916685  0.36334838     0.03600
C779        C  0.55657264  0.82224248  0.36410052    -0.21100
C780        C  0.52715577  0.81466013  0.34101979    -0.13400
C781        C  0.50718344  0.78257143  0.65083217     0.12300
C782        C  0.51802783  0.75967259  0.64999251    -0.23800
C783        C  0.59922154  0.80843355  0.38804238    -0.06900
H784        H  0.57186846  0.84681597  0.38208216     0.13900
C785        C  0.47366383  0.77084236  0.62739123    -0.17000
H786        H  0.50295851  0.73514002  0.63192035     0.08200
H787        H  0.65243395  0.76986386  0.62267598     0.06000
H788        H  0.62123539  0.74014803  0.58388314     0.07200
H789        H  0.63977763  0.72489091  0.61826558     0.06300
H790        H  0.48826166  0.69784035  0.37427381     0.01200
H791        H  0.52229858  0.72528368  0.41212329     0.01600
H792        H  0.50170677  0.67736271  0.40809039     0.05100
H793        H  0.61129659  0.83397073  0.40532442     0.04100
H794        H  0.62075904  0.81226397  0.36838604    -0.01600
H795        H  0.59031693  0.78595621  0.40935214    -0.00200
H796        H  0.47880770  0.77048291  0.59517812     0.03500
H797        H  0.46514761  0.78870204  0.63202331     0.05400
H798        H  0.45041728  0.74288110  0.63668238     0.06300
C799        C  0.51935784  0.84162983  0.67438877     0.79400
N800        N  0.51820333  0.85580943  0.70927857    -0.78900
C801        C  0.51297761  0.88204271  0.70947281     0.81800
N802        N  0.51041865  0.89529133  0.00785458    -0.78900
C803        C  0.51263817  0.88196642  0.97282311     0.81900
N804        N  0.51778472  0.85566820  0.97288272    -0.80600
C805        C  0.37765204  0.92958275  0.67437480     0.79400
N806        N  0.39618247  0.94118296  0.97273206    -0.78900
C807        C  0.43291013  0.96705671  0.97229653     0.81800
N808        N  0.45155831  0.98011404  0.67377377    -0.78900
C809        C  0.43335714  0.96775903  0.70887294     0.81900
N810        N  0.39663151  0.94218812  0.70902969    -0.80600
N811        N  0.63557106  0.04596914  0.88635943    -0.07000
N812        N  0.65814696  0.06404899  0.91625639    -0.59100
N813        N  0.62272609  0.01100979  0.79494850    -0.06700
N814        N  0.63593956  0.00443096  0.76409788    -0.61200
N815        N  0.63551760  0.04557077  0.79545973    -0.06300
N816        N  0.65811177  0.06338162  0.76552890    -0.59100
N817        N  0.62267281  0.01138404  0.88741509    -0.05900
N818        N  0.63580388  0.00507052  0.91862770    -0.61600
C819        C  0.65806005  0.03828830  0.93597339     0.95200
C820        C  0.65814357  0.03748137  0.74638874     0.95000
N821        N  0.51152248  0.92569469  0.79480080    -0.08700
N822        N  0.49372549  0.90443782  0.76372113    -0.59700
N823        N  0.54494784  0.93567560  0.88661273    -0.05300
N824        N  0.55049157  0.92093415  0.91655899    -0.60900
N825        N  0.51136657  0.92574721  0.88728100    -0.07200
N826        N  0.49346880  0.90442714  0.91831926    -0.59900
N827        N  0.54504025  0.93546897  0.79581583    -0.04900
N828        N  0.55064270  0.92068271  0.76602329    -0.61000
Mn829      Mn  0.58439635  0.97279551  0.84122386     1.18400
C830        C  0.51850642  0.90144214  0.74641928     0.97300
C831        C  0.51826609  0.90156067  0.93593528     0.97900
N832        N  0.59934352  0.08634669  0.79424614    -0.07200
N833        N  0.61711070  0.10763075  0.76315521    -0.63500
N834        N  0.56590310  0.07669729  0.88599733    -0.06000
N835        N  0.56032796  0.09149536  0.91580380    -0.64200
N836        N  0.59947983  0.08663008  0.88679006    -0.06700
N837        N  0.61735350  0.10801782  0.91777086    -0.63800
N838        N  0.56583390  0.07658504  0.79520516    -0.05600
N839        N  0.56019304  0.09136895  0.76537682    -0.64500
Mn840      Mn  0.61866191  0.06726579  0.84067050     1.10700
C841        C  0.59231756  0.11064943  0.74580254     0.98500
C842        C  0.59255892  0.11094162  0.93520593     0.98600
N843        N  0.47530802  0.96643244  0.88603123    -0.06700
N844        N  0.45270176  0.94849511  0.91592148    -0.62100
N845        N  0.48847961  0.00119216  0.79450436    -0.06000
N846        N  0.47559660  0.00791404  0.76342201    -0.58800
N847        N  0.47560580  0.96661104  0.79512608    -0.07400
N848        N  0.45325835  0.94890521  0.76496810    -0.61700
N849        N  0.48825706  0.00103141  0.88682291    -0.06300
N850        N  0.47513204  0.00751393  0.91782190    -0.58900
Mn851      Mn  0.49223866  0.94495195  0.84078582     1.20200
Mn852      Mn  0.52657200  0.03943514  0.84067598     1.10100
Cl853      Cl  0.55547182  0.00610346  0.84083573    -0.86800
C854        C  0.45281596  0.97437465  0.93530637     0.95500
C855        C  0.45353616  0.97494834  0.74562297     0.95300
C856        C  0.59337944  0.17196361  0.67381394     0.79400
N857        N  0.59424275  0.15751584  0.97228075    -0.78900
C858        C  0.59814991  0.13034908  0.97219231     0.81800
N859        N  0.59980838  0.11655612  0.67384908    -0.78900
C860        C  0.59787577  0.13012900  0.70882523     0.81900
N861        N  0.59393983  0.15729018  0.70870662    -0.80600
C862        C  0.73372330  0.08385830  0.67469199     0.79400
N863        N  0.71493675  0.07217377  0.97317442    -0.78900
C864        C  0.67827159  0.04589758  0.97290248     0.81800
N865        N  0.65988875  0.03246811  0.67448263    -0.78900
C866        C  0.67827286  0.04485775  0.70950991     0.81900
N867        N  0.71496196  0.07086911  0.70946375    -0.80600
N868        N  0.97794296  0.46226319  0.87661794    -0.07000
N869        N  0.95680911  0.44439037  0.90775760    -0.59100
N870        N  0.98786243  0.49610717  0.78510849    -0.06700
N871        N  0.97331522  0.50183786  0.75515578    -0.61200
N872        N  0.97817024  0.46259929  0.78410165    -0.06300
N873        N  0.95723343  0.44493856  0.75278292    -0.59100
N874        N  0.98758727  0.49575176  0.87571848    -0.05900
N875        N  0.97284504  0.50127361  0.90558325    -0.61600
C876        C  0.95376768  0.46913028  0.92514871     0.95200
C877        C  0.95435345  0.46981213  0.73540178     0.95000
N878        N  0.09755756  0.58705151  0.78547064    -0.07200
N879        N  0.11550140  0.60982506  0.75568788    -0.59700
N880        N  0.06261157  0.57342744  0.87703142    -0.05300
N881        N  0.05588350  0.58628862  0.90812008    -0.60900
N882        N  0.09719635  0.58640986  0.87638938    -0.07200
N883        N  0.11490018  0.60881748  0.90647761    -0.59900
N884        N  0.06296442  0.57401937  0.78455748    -0.04900
N885        N  0.05648423  0.58721392  0.75353246    -0.61000
Mn886      Mn  0.02464558  0.53534544  0.83058282     1.18400
C887        C  0.08964769  0.60971460  0.73618118     0.97300
C888        C  0.08887659  0.60844386  0.92588999     0.97900
N889        N  0.01856513  0.42630921  0.78490526    -0.07200
N890        N  0.00044856  0.40349937  0.75522474    -0.63500
N891        N  0.05327113  0.43922790  0.87658031    -0.06000
N892        N  0.05975504  0.42616723  0.90776274    -0.64200
N893        N  0.01871759  0.42633032  0.87571641    -0.06700
N894        N  0.00079687  0.40379669  0.90564369    -0.63800
N895        N  0.05313564  0.43928716  0.78387531    -0.05600
N896        N  0.05942036  0.42600665  0.75279018    -0.64500
Mn897      Mn  0.99719887  0.44320033  0.83034339     1.10700
C898        C  0.02614353  0.40352167  0.73556377     0.98500
C899        C  0.02661297  0.40394658  0.92526096     0.98600
N900        N  0.13810050  0.55046440  0.87692983    -0.06700
N901        N  0.15912479  0.56804318  0.90824783    -0.62100
N902        N  0.12840326  0.51730007  0.78511410    -0.06000
N903        N  0.14309549  0.51170367  0.75527734    -0.58800
N904        N  0.13824397  0.55087622  0.78428680    -0.07400
N905        N  0.15946008  0.56870919  0.75315173    -0.61700
N906        N  0.12844980  0.51697459  0.87571105    -0.06300
N907        N  0.14311948  0.51119635  0.90549186    -0.58900
Mn908      Mn  0.11898135  0.56993737  0.83078212     1.20200
Mn909      Mn  0.09143862  0.47768669  0.83028395     1.10100
Cl910      Cl  0.05808164  0.50655422  0.83048440    -0.86800
C911        C  0.16212872  0.54315294  0.92538988     0.95500
C912        C  0.16233576  0.54384453  0.73572952     0.95300
C913        C  0.21909889  0.53815136  0.66427997     0.79400
N914        N  0.20605686  0.54087373  0.96265243    -0.78900
C915        C  0.18144571  0.54829188  0.96230647     0.81800
N916        N  0.16904324  0.55204809  0.99719677    -0.78900
C917        C  0.18183784  0.54910585  0.69896253     0.81900
N918        N  0.20650959  0.54176330  0.69902075    -0.80600
C919        C  0.97618146  0.32881489  0.66329042     0.79400
N920        N  0.99025653  0.34728273  0.96191753    -0.78900
C921        C  0.01865467  0.38333642  0.96195233     0.81800
N922        N  0.03237825  0.40134706  0.66376145    -0.78900
C923        C  0.01813798  0.38305570  0.69869471     0.81900
N924        N  0.98966199  0.34696524  0.69827043    -0.80600
C925        C  0.89528531  0.47202916  0.66361000     0.79400
N926        N  0.90878737  0.46976936  0.96211640    -0.78900
C927        C  0.93436456  0.46365809  0.96200542     0.81800
N928        N  0.94759110  0.46115458  0.99698253    -0.78900
C929        C  0.93489946  0.46438652  0.69858731     0.81900
N930        N  0.90943457  0.47064375  0.69842350    -0.80600
C931        C  0.13759381  0.68416584  0.66331460     0.79400
N932        N  0.12379346  0.66538599  0.96208768    -0.78900
C933        C  0.09642862  0.62903932  0.96242150     0.81800
N934        N  0.08332463  0.61111963  0.66435227    -0.78900
C935        C  0.09717420  0.62977147  0.69912520     0.81900
N936        N  0.12471959  0.66614031  0.69845229    -0.80600
N937        N  0.52227720  0.43304913  0.78581882    -0.07000
N938        N  0.50510169  0.41176141  0.75457458    -0.59100
N939        N  0.55621103  0.44386976  0.87742335    -0.06700
N940        N  0.56270591  0.42974503  0.90718448    -0.61200
N941        N  0.52218354  0.43266860  0.87830465    -0.06300
N942        N  0.50492142  0.41107501  0.90933912    -0.59100
N943        N  0.55632894  0.44429500  0.78671464    -0.05900
N944        N  0.56293576  0.43052972  0.75673096    -0.61600
C945        C  0.53087736  0.41037630  0.73708153     0.95200
C946        C  0.53057929  0.40935566  0.92665617     0.95000
N947        N  0.64369889  0.55460006  0.87869565    -0.07200
N948        N  0.66501061  0.57190538  0.90989195    -0.59700
N949        N  0.63301392  0.52084070  0.78699440    -0.05300
N950        N  0.64733436  0.51458973  0.75727591    -0.60900
N951        N  0.64403850  0.55482225  0.78619491    -0.07200
N952        N  0.66570030  0.57231506  0.75528031    -0.59900
N953        N  0.63269844  0.52062043  0.87782024    -0.04900
N954        N  0.64667891  0.51418286  0.90779472    -0.61000
Mn955      Mn  0.59503311  0.48191344  0.83223510     1.18400
C956        C  0.66669370  0.54628951  0.92741283     0.97300
C957        C  0.66766015  0.54683985  0.73791921     0.97900
N958        N  0.48365579  0.47106036  0.87862075    -0.07200
N959        N  0.46242711  0.45392434  0.90993652    -0.63500
N960        N  0.49442213  0.50502519  0.78696104    -0.06000
N961        N  0.48019922  0.51153906  0.75734477    -0.64200
N962        N  0.48334263  0.47103039  0.78594212    -0.06700
N963        N  0.46174556  0.45380054  0.75487939    -0.63800
N964        N  0.49475255  0.50507095  0.87759318    -0.05600
N965        N  0.48094279  0.51170420  0.90747976    -0.64500
Mn966      Mn  0.50148405  0.45055579  0.83217313     1.10700
C967        C  0.46092777  0.47971512  0.92728757     0.98500
C968        C  0.45988246  0.47946423  0.73773796     0.98600
N969        N  0.60508939  0.59257363  0.78596247    -0.06700
N970        N  0.62224533  0.61371750  0.75461963    -0.62100
N971        N  0.57106705  0.58160627  0.87739737    -0.06000
N972        N  0.56446988  0.59561366  0.90711145    -0.58800
N973        N  0.60506973  0.59276965  0.87844954    -0.07400
N974        N  0.62223045  0.61421297  0.90959604    -0.61700
N975        N  0.57105940  0.58136061  0.78679692    -0.06300
N976        N  0.56442827  0.59502289  0.75669409    -0.58900
Mn977      Mn  0.62581409  0.57505134  0.83234380     1.20200
Mn978      Mn  0.53237264  0.54374086  0.83217534     1.10100
Cl979      Cl  0.56366141  0.51278524  0.83223417    -0.86800
C980        C  0.59645259  0.61503791  0.73702030     0.95500
C981        C  0.59650641  0.61586498  0.92676828     0.95300
C982        C  0.53471515  0.35184450  0.66603590     0.79400
N983        N  0.53271224  0.36579376  0.70065390    -0.78900
C984        C  0.52617087  0.39106111  0.70037044     0.81800
N985        N  0.52302419  0.40357079  0.66520603    -0.78900
C986        C  0.52603636  0.39049947  0.96376296     0.81900
N987        N  0.53260578  0.36521723  0.96427035    -0.80600
C988        C  0.40462865  0.48679597  0.66491794     0.79400
N989        N  0.41694425  0.48322208  0.70002446    -0.78900
C990        C  0.44108680  0.47515433  0.70061325     0.81800
N991        N  0.45369331  0.47147962  0.66584384    -0.78900
C992        C  0.44167481  0.47525503  0.96398797     0.81900
N993        N  0.41761000  0.48335837  0.96371690    -0.80600
C994        C  0.72555229  0.54320623  0.66553667     0.79400
N995        N  0.71143932  0.54484510  0.96415539    -0.78900
C996        C  0.68604092  0.55118696  0.96423284     0.81800
N997        N  0.67349728  0.55436846  0.66598705    -0.78900
C998        C  0.68673117  0.55169227  0.70088494     0.81900
N999        N  0.71225874  0.54546690  0.70056416    -0.80600
C1000       C  0.59061423  0.67211255  0.66595089     0.79400
N1001       N  0.59344183  0.65872171  0.70055636    -0.78900
C1002       C  0.60109110  0.63431991  0.70034556     0.81800
N1003       N  0.60463334  0.62210804  0.66522625    -0.78900
C1004       C  0.60088449  0.63467076  0.96376724     0.81900
N1005       N  0.59305320  0.65898919  0.96423849    -0.80600
C1006       C  0.81671637  0.47586821  0.68971286    -0.23300
C1007       C  0.82326223  0.50291021  0.66333582     0.08600
C1008       C  0.85272116  0.51899879  0.96982262     0.09100
C1009       C  0.87530054  0.50778880  0.97018424    -0.18200
C1010       C  0.86902313  0.48080165  0.66342080    -0.28700
C1011       C  0.83885265  0.46412761  0.68976255     0.17400
C1012       C  0.79821072  0.51320432  0.66357704     0.11400
C1013       C  0.86023080  0.54792340  0.94083924    -0.13000
H1014       H  0.89837546  0.52063374  0.95004319     0.11600
C1015       C  0.82801201  0.43291468  0.71706534    -0.23800
H1016       H  0.79361514  0.46324776  0.70981565     0.07300
C1017       C  0.76524848  0.49297881  0.97528067     0.03600
C1018       C  0.74240104  0.50385461  0.97613611    -0.21100
C1019       C  0.75167238  0.53432367  0.66502828    -0.13400
C1020       C  0.78503617  0.55486459  0.68633529     0.12300
C1021       C  0.80775506  0.54379372  0.68554099    -0.23800
C1022       C  0.75427105  0.45997639  0.95134200    -0.06900
H1023       H  0.71684822  0.48814622  0.95984274     0.13900
C1024       C  0.79830460  0.58923740  0.70891215    -0.17000
H1025       H  0.83335656  0.55940352  0.70175668     0.08200
H1026       H  0.79902198  0.40967292  0.71154554     0.06000
H1027       H  0.83094856  0.44173907  0.74850731     0.07200
H1028       H  0.84411031  0.42239268  0.71248631     0.06300
H1029       H  0.86574468  0.57179062  0.95731714     0.01200
H1030       H  0.83620739  0.53674870  0.92116373     0.01600
H1031       H  0.88426511  0.55753898  0.92179406     0.05100
H1032       H  0.72772744  0.44740809  0.93600736     0.04100
H1033       H  0.75158021  0.43908923  0.97123801    -0.01600
H1034       H  0.77529748  0.46797837  0.92840774    -0.00200
H1035       H  0.80089208  0.58527227  0.74097356     0.03500
H1036       H  0.78010812  0.59752464  0.70593096     0.05400
H1037       H  0.82551956  0.61213837  0.69742709     0.06300
C1038       C  0.26661742  0.49414078  0.97787839    -0.23300
C1039       C  0.29896792  0.51739516  0.66612942     0.08600
C1040       C  0.30470749  0.54694465  0.68750243     0.09100
C1041       C  0.27783339  0.55267731  0.68669388    -0.18200
C1042       C  0.24552599  0.52966748  0.66477616    -0.28700
C1043       C  0.23950166  0.49953085  0.97731559     0.17400
C1044       C  0.32618234  0.50982645  0.66647384     0.11400
C1045       C  0.33918993  0.57237026  0.71105241    -0.13000
H1046       H  0.28226816  0.57556264  0.70279982     0.11600
C1047       C  0.20442271  0.47157024  0.95575167    -0.23800
H1048       H  0.26220671  0.47116182  0.96199381     0.07300
C1049       C  0.32374164  0.48508340  0.69385277     0.03600
C1050       C  0.34991576  0.47840412  0.69276590    -0.21100
C1051       C  0.37823896  0.49556541  0.66458496    -0.13400
C1052       C  0.38087738  0.52085738  0.97077490     0.12300
C1053       C  0.35470425  0.52758302  0.97212696    -0.23800
C1054       C  0.29347533  0.46574837  0.72414328    -0.06900
H1055       H  0.34791884  0.45921469  0.71367961     0.13900
C1056       C  0.41173028  0.54185854  0.94126563    -0.17000
H1057       H  0.35641374  0.54679620  0.95149081     0.08200
H1058       H  0.19296077  0.44392717  0.96750070     0.06000
H1059       H  0.21001918  0.47223789  0.92349326     0.07200
H1060       H  0.18308989  0.47567088  0.95953052     0.06300
H1061       H  0.36317418  0.58581546  0.69091222     0.01200
H1062       H  0.34188261  0.55674906  0.73415285     0.01600
H1063       H  0.33926678  0.59401489  0.72614409     0.05100
H1064       H  0.29566189  0.44742346  0.74347894     0.04100
H1065       H  0.26665549  0.44893800  0.70877822    -0.01600
H1066       H  0.29458947  0.48609477  0.74342118    -0.00200
H1067       H  0.40994416  0.52299200  0.91895071     0.03500
H1068       H  0.43833026  0.55665193  0.95705878     0.05400
H1069       H  0.41081212  0.56235576  0.92476125     0.06300
C1070       C  0.87813752  0.24571769  0.98252761    -0.23300
C1071       C  0.87891296  0.21844749  0.66681171     0.08600
C1072       C  0.91203630  0.22712093  0.68184072     0.09100
C1073       C  0.94367578  0.26342887  0.67988843    -0.18200
C1074       C  0.94271226  0.29094291  0.66303222    -0.28700
C1075       C  0.90946911  0.28197703  0.98082310     0.17400
C1076       C  0.84383836  0.18186990  0.67196316     0.11400
C1077       C  0.91371980  0.19818653  0.70038826    -0.13000
H1078       H  0.96918255  0.27045600  0.69179682     0.11600
C1079       C  0.90531590  0.30994726  0.96407241    -0.23800
H1080       H  0.85245077  0.23886363  0.97141516     0.07300
C1081       C  0.82042616  0.17481899  0.70382216     0.03600
C1082       C  0.78538600  0.14159331  0.70505780    -0.21100
C1083       C  0.77308526  0.11514206  0.67511811    -0.13400
C1084       C  0.79778412  0.12120458  0.97817881     0.12300
C1085       C  0.83262999  0.15488282  0.97657679    -0.23800
C1086       C  0.83211093  0.20282434  0.73595030    -0.06900
H1087       H  0.76692870  0.13709757  0.72860158     0.13900
C1088       C  0.78891103  0.09276396  0.94772751    -0.17000
H1089       H  0.85110622  0.16024571  0.95261012     0.08200
H1090       H  0.88368997  0.30876419  0.98075862     0.06000
H1091       H  0.89716348  0.30370873  0.93229939     0.07200
H1092       H  0.93040395  0.33836756  0.96616548     0.06300
H1093       H  0.90531068  0.17646452  0.67821689     0.01200
H1094       H  0.89506906  0.18595182  0.72637958     0.01600
H1095       H  0.94172082  0.20955984  0.71072985     0.05100
H1096       H  0.81058434  0.19280013  0.75887790     0.04100
H1097       H  0.83806430  0.22814717  0.72278633    -0.01600
H1098       H  0.85701645  0.20935249  0.75092591    -0.00200
H1099       H  0.78766838  0.10205631  0.91765945     0.03500
H1100       H  0.76293985  0.06566430  0.95382641     0.05400
H1101       H  0.81065065  0.08886809  0.94792873     0.06300
C1102       C  0.59879634  0.25622544  0.98144784    -0.23300
C1103       C  0.57084872  0.25065533  0.67207053     0.08600
C1104       C  0.55141737  0.22015428  0.69764518     0.09100
C1105       C  0.56009013  0.19547671  0.69827727    -0.18200
C1106       C  0.58767156  0.20055616  0.67378944    -0.28700
C1107       C  0.60785454  0.23184755  0.98231320     0.17400
C1108       C  0.56239731  0.27718473  0.67008754     0.11400
C1109       C  0.52143614  0.21362440  0.72405737    -0.13000
H1110       H  0.54466580  0.17161339  0.71733492     0.11600
C1111       C  0.63992623  0.24132664  0.95754252    -0.23800
H1112       H  0.61397680  0.28006676  0.96231756     0.07300
C1113       C  0.58160826  0.30920262  0.69334602     0.03600
C1114       C  0.57170122  0.33286075  0.69150683    -0.21100
C1115       C  0.54309856  0.32527176  0.66682440    -0.13400
C1116       C  0.52366960  0.29289569  0.97704661     0.12300
C1117       C  0.53393963  0.26951887  0.97868098    -0.23800
C1118       C  0.61240738  0.31824348  0.72016764    -0.06900
H1119       H  0.58661537  0.35763792  0.70916500     0.13900
C1120       C  0.49099925  0.28104875  0.95182748    -0.17000
H1121       H  0.51904629  0.24460427  0.96123182     0.08200
H1122       H  0.66417692  0.26931659  0.96520567     0.06000
H1123       H  0.63357571  0.24061254  0.92550369     0.07200
H1124       H  0.64766308  0.22287107  0.96259530     0.06300
H1125       H  0.49953627  0.21038197  0.70558306     0.01200
H1126       H  0.53257944  0.23715701  0.74448771     0.01600
H1127       H  0.50909094  0.18857485  0.74237013     0.05100
H1128       H  0.62445073  0.34426258  0.73645265     0.04100
H1129       H  0.63431132  0.32103647  0.70221473    -0.01600
H1130       H  0.60221123  0.29613418  0.74241358    -0.00200
H1131       H  0.49717757  0.28025344  0.92007695     0.03500
H1132       H  0.48240499  0.29897986  0.95473362     0.05400
H1133       H  0.46736123  0.25323814  0.96100486     0.06300
C1134       C  0.27834308  0.85967395  0.97735858    -0.23300
C1135       C  0.26755952  0.83210118  0.67183620     0.08600
C1136       C  0.29148216  0.83829486  0.70275743     0.09100
C1137       C  0.32647693  0.87147266  0.70413788    -0.18200
C1138       C  0.33833567  0.89852223  0.67502950    -0.28700
C1139       C  0.31331194  0.89317239  0.97890669     0.17400
C1140       C  0.23271431  0.79556956  0.66617861     0.11400
C1141       C  0.28051802  0.80931414  0.73346303    -0.13000
H1142       H  0.34531277  0.87539974  0.72692122     0.11600
C1143       C  0.32208225  0.92210722  0.94916830    -0.23800
H1144       H  0.25954151  0.85481939  0.95399345     0.07300
C1145       C  0.19993345  0.78554025  0.68375474     0.03600
C1146       C  0.16890044  0.74892956  0.68182950    -0.21100
C1147       C  0.17024074  0.72244925  0.66274151    -0.13400
C1148       C  0.20319582  0.73281658  0.97812283     0.12300
C1149       C  0.23376010  0.76942351  0.97947690    -0.23800
C1150       C  0.19804233  0.81333616  0.70498551    -0.06900
H1151       H  0.14364360  0.74083057  0.69562032     0.13900
C1152       C  0.20816252  0.70603489  0.95947308    -0.17000
H1153       H  0.25929109  0.77735176  0.96658119     0.08200
H1154       H  0.30071121  0.92649223  0.95049213     0.06000
H1155       H  0.32253860  0.91299575  0.91871356     0.07200
H1156       H  0.34843904  0.94891789  0.95509266     0.06300
H1157       H  0.27449258  0.78451454  0.71876796     0.01200
H1158       H  0.25583142  0.80210623  0.74956449     0.01600
H1159       H  0.30247415  0.81871880  0.75569438     0.05100
H1160       H  0.17033217  0.80096247  0.71707518     0.04100
H1161       H  0.20497841  0.83539786  0.68396338    -0.01600
H1162       H  0.21771085  0.82537428  0.73012591    -0.00200
H1163       H  0.21433382  0.71231232  0.92731623     0.03500
H1164       H  0.18419729  0.67715094  0.96263270     0.05400
H1165       H  0.23142437  0.70863040  0.97402117     0.06300
C1166       C  0.58562796  0.75074329  0.97751535    -0.23300
C1167       C  0.55805976  0.74270073  0.67058915     0.08600
C1168       C  0.54139554  0.71174189  0.69535534     0.09100
C1169       C  0.55281581  0.68938952  0.69317378    -0.18200
C1170       C  0.58057193  0.69735529  0.66682930    -0.28700
C1171       C  0.59755572  0.72879078  0.97564646     0.17400
C1172       C  0.54775569  0.76770166  0.67254763     0.11400
C1173       C  0.51172169  0.70246080  0.72413029    -0.13000
H1174       H  0.53975380  0.66533843  0.71192633     0.11600
C1175       C  0.62935845  0.74123452  0.94863794    -0.23800
H1176       H  0.59857350  0.77490342  0.95893571     0.07300
C1177       C  0.56719020  0.79916723  0.69668170     0.03600
C1178       C  0.55657311  0.82224278  0.69743368    -0.21100
C1179       C  0.52715644  0.81466063  0.67435272    -0.13400
C1180       C  0.50718246  0.78257051  0.98416582     0.12300
C1181       C  0.51802687  0.75967172  0.98332616    -0.23800
C1182       C  0.59922213  0.80843414  0.72137558    -0.06900
H1183       H  0.57186914  0.84681660  0.71541548     0.13900
C1184       C  0.47366297  0.77084164  0.96072497    -0.17000
H1185       H  0.50295705  0.73513861  0.96525408     0.08200
H1186       H  0.65243435  0.76986470  0.95601003     0.06000
H1187       H  0.62123628  0.74014914  0.91721696     0.07200
H1188       H  0.63977789  0.72489160  0.95159941     0.06300
H1189       H  0.48826161  0.69784028  0.70760666     0.01200
H1190       H  0.52229876  0.72528384  0.74545619     0.01600
H1191       H  0.50170697  0.67736307  0.74142386     0.05100
H1192       H  0.61129752  0.83397170  0.73865735     0.04100
H1193       H  0.62075942  0.81226437  0.70171910    -0.01600
H1194       H  0.59031767  0.78595686  0.74268516    -0.00200
H1195       H  0.47880675  0.77048209  0.92851183     0.03500
H1196       H  0.46514700  0.78870152  0.96535712     0.05400
H1197       H  0.45041626  0.74288041  0.97001591     0.06300
loop_ 
_geom_bond_atom_site_label_1 
_geom_bond_atom_site_label_2 
_geom_bond_distance 
_geom_bond_site_symmetry_2 
_ccdc_geom_bond_type 
C1            N2   1.357       .  A
C1          N804   1.357   1_554  A
C1          C381   1.475       .  S
N2            C3   1.357       .  A
C3          N802   1.358       .  A
C3           C32   1.458       .  S
N4            C5   1.358       .  A
N4          C402   1.358       .  A
C5            N6   1.357       .  A
C5           C33   1.459       .  S
N6          C400   1.357       .  A
C7           N12   1.357       .  A
C7          N806   1.358   1_554  A
C7          C340   1.480       .  S
N8            C9   1.357       .  A
N8          C406   1.358       .  A
C9          N409   1.357       .  A
C9           C56   1.457       .  S
N10          C11   1.357       .  A
N10         C807   1.357   1_554  A
C11          N12   1.355       .  A
C11          C57   1.456       .  S
N13          N14   1.318       .  A
N13          N19   1.316       .  A
N13         Mn42   2.191       .  S
N14          C21   1.349       .  A
N15          N17   1.316       .  A
N15          N16   1.323       .  A
N15         Mn31   2.208   1_545  S
N16          C22   1.353       .  A
N17          N18   1.317       .  A
N17         Mn42   2.193       .  S
N18          C22   1.349       .  A
N19          N20   1.323       .  A
N19         Mn31   2.211   1_545  S
N20          C21   1.353       .  A
C21          C66   1.459       .  S
C22          C68   1.458       .  S
N23          N29   1.316       .  A
N23          N24   1.323       .  A
N23         Mn53   2.209       .  S
N24          C32   1.353       .  A
N25          N26   1.317       .  A
N25          N27   1.316       .  A
N25         Mn31   2.189       .  S
N26          C33   1.348       .  A
N27          N28   1.324       .  A
N27         Mn53   2.212       .  S
N28          C33   1.353       .  A
N29          N30   1.317       .  A
N29         Mn31   2.191       .  S
N30          C32   1.349       .  A
Mn31        Cl55   2.547   1_565  S
N34          N35   1.323       .  A
N34          N40   1.316       .  A
N34         Mn42   2.213       .  S
N35          C43   1.354       .  A
N36          N38   1.316       .  A
N36          N37   1.317       .  A
N36         Mn54   2.188       .  S
N37          C44   1.348       .  A
N38          N39   1.323       .  A
N38         Mn42   2.212       .  S
N39          C44   1.353       .  A
N40          N41   1.317       .  A
N40         Mn54   2.189       .  S
N41          C43   1.348       .  A
Mn42        Cl55   2.548       .  S
C43          C62   1.459       .  S
C44          C60   1.459       .  S
N45          N46   1.317       .  A
N45          N51   1.316   1_565  A
N45         Mn53   2.190       .  S
N46          C56   1.349       .  A
N47          N48   1.322       .  A
N47          N49   1.316   1_545  A
N47         Mn54   2.202       .  S
N48          C57   1.351   1_545  A
N49          N50   1.317       .  A
N49         Mn53   2.194       .  S
N50          C57   1.350       .  A
N51          N52   1.323       .  A
N51         Mn54   2.207       .  S
N52          C56   1.352   1_545  A
Mn53        Cl55   2.548   1_565  S
Mn54        Cl55   2.547       .  S
C58          N63   1.358       .  A
C58         N857   1.358   1_554  A
C58         C308   1.479       .  S
N59          C60   1.357       .  A
N59         C457   1.358       .  A
C60         N460   1.357       .  A
N61          C62   1.357       .  A
N61         C858   1.357   1_554  A
C62          N63   1.358       .  A
C64          N69   1.358       .  A
C64         N863   1.358   1_554  A
C64         C285   1.484       .  S
N65          C66   1.357       .  A
N65         C463   1.358       .  A
C66         N466   1.357       .  A
N67          C68   1.357       .  A
N67         C864   1.357   1_554  A
C68          N69   1.356       .  A
N70          N71   1.323       .  A
N70          N76   1.316       .  A
N70         Mn99   2.209       .  S
N71          C78   1.353       .  A
N72          N74   1.316       .  A
N72          N73   1.316       .  A
N72         Mn88   2.184   1_655  S
N73          C79   1.348       .  A
N74          N75   1.323       .  A
N74         Mn99   2.209       .  S
N75          C79   1.353       .  A
N76          N77   1.316       .  A
N76         Mn88   2.185   1_655  S
N77          C78   1.348       .  A
C78         C129   1.456       .  S
C79         C131   1.455       .  S
N80          N86   1.316       .  A
N80          N81   1.317       .  A
N80        Mn110   2.192       .  S
N81          C89   1.349       .  A
N82          N83   1.323       .  A
N82          N84   1.316       .  A
N82         Mn88   2.205       .  S
N83          C90   1.352       .  A
N84          N85   1.317       .  A
N84        Mn110   2.194       .  S
N85          C90   1.349       .  A
N86          N87   1.323       .  A
N86         Mn88   2.208       .  S
N87          C89   1.353       .  A
Mn88       Cl112   2.547       .  S
C89         C137   1.460       .  S
C90         C135   1.458       .  S
N91          N92   1.317       .  A
N91          N97   1.316       .  A
N91         Mn99   2.190   1_455  S
N92         C100   1.349       .  A
N93          N95   1.316       .  A
N93          N94   1.324       .  A
N93        Mn111   2.210       .  S
N94         C101   1.353       .  A
N95          N96   1.316       .  A
N95         Mn99   2.190   1_455  S
N96         C101   1.349       .  A
N97          N98   1.324       .  A
N97        Mn111   2.213       .  S
N98         C100   1.354       .  A
Mn99       Cl112   2.546   1_655  S
C100        C125   1.461       .  S
C101        C123   1.459       .  S
N102        N103   1.324       .  A
N102        N108   1.316       .  A
N102       Mn110   2.212       .  S
N103        C113   1.354       .  A
N104        N105   1.316       .  A
N104        N106   1.316       .  A
N104       Mn111   2.185       .  S
N105        C114   1.347       .  A
N106        N107   1.324       .  A
N106       Mn110   2.215       .  S
N107        C114   1.354       .  A
N108        N109   1.316       .  A
N108       Mn111   2.186       .  S
N109        C113   1.348       .  A
Mn110      Cl112   2.547       .  S
Mn111      Cl112   2.547       .  S
C113        C117   1.458       .  S
C114        C119   1.458       .  S
C115        N120   1.356   1_556  A
C115        N914   1.356       .  A
C115        C244   1.475       .  S
N116        C117   1.357       .  A
N116        C514   1.356       .  A
C117        N118   1.358       .  A
N118        C518   1.358       .  A
C119        N120   1.357       .  A
C119        N916   1.358   1_554  A
C121        N126   1.356   1_556  A
C121        N920   1.355       .  A
C121        C276   1.472       .  S
N122        C123   1.356   1_655  A
N122        C520   1.355       .  A
C123        N523   1.359       .  A
N124        C125   1.360   1_556  A
N124        C921   1.359       .  A
C125        N126   1.358   1_455  A
C127        N132   1.356   1_556  A
C127        N926   1.357       .  A
C127        C212   1.477       .  S
N128        C129   1.356       .  A
N128        C526   1.357       .  A
C129        N130   1.357       .  A
N130        C530   1.357       .  A
C131        N132   1.356       .  A
C131        N928   1.357   1_554  A
C133        N138   1.356   1_556  A
C133        N932   1.355       .  A
C133        C349   1.470       .  S
N134        C135   1.355       .  A
N134        C532   1.355       .  A
C135        N535   1.359       .  A
N136        C137   1.359   1_556  A
N136        C933   1.359       .  A
C137        N138   1.357       .  A
N139        N140   1.323       .  A
N139        N145   1.316       .  A
N139       Mn168   2.212       .  S
N140        C147   1.353       .  A
N141        N143   1.316       .  A
N141        N142   1.317       .  A
N141       Mn157   2.187       .  S
N142        C148   1.348       .  A
N143        N144   1.323       .  A
N143       Mn168   2.212       .  S
N144        C148   1.354       .  A
N145        N146   1.316       .  A
N145       Mn157   2.187       .  S
N146        C147   1.348       .  A
C147        C186   1.457       .  S
C148        C188   1.458       .  S
N149        N155   1.316       .  A
N149        N150   1.323       .  A
N149       Mn179   2.210       .  S
N150        C158   1.353       .  A
N151        N152   1.317       .  A
N151        N153   1.315       .  A
N151       Mn157   2.189       .  S
N152        C159   1.348       .  A
N153        N154   1.323       .  A
N153       Mn179   2.211       .  S
N154        C159   1.354       .  A
N155        N156   1.317       .  A
N155       Mn157   2.189       .  S
N156        C158   1.348       .  A
Mn157      Cl181   2.546       .  S
C158        C198   1.458       .  S
C159        C200   1.459       .  S
N160        N161   1.324       .  A
N160        N166   1.316       .  A
N160       Mn168   2.214       .  S
N161        C169   1.354       .  A
N162        N164   1.315       .  A
N162        N163   1.316       .  A
N162       Mn180   2.185       .  S
N163        C170   1.348       .  A
N164        N165   1.324       .  A
N164       Mn168   2.215       .  S
N165        C170   1.355       .  A
N166        N167   1.316       .  A
N166       Mn180   2.184       .  S
N167        C169   1.347       .  A
Mn168      Cl181   2.547       .  S
C169        C194   1.458       .  S
C170        C192   1.459       .  S
N171        N172   1.323       .  A
N171        N177   1.316       .  A
N171       Mn179   2.208       .  S
N172        C182   1.353       .  A
N173        N174   1.316       .  A
N173        N175   1.316       .  A
N173       Mn180   2.184       .  S
N174        C183   1.347       .  A
N175        N176   1.323       .  A
N175       Mn179   2.210       .  S
N176        C183   1.354       .  A
N177        N178   1.316       .  A
N177       Mn180   2.184       .  S
N178        C182   1.347       .  A
Mn179      Cl181   2.547       .  S
Mn180      Cl181   2.546       .  S
C182        C204   1.454       .  S
C183        C206   1.456       .  S
C184        N185   1.357   1_556  A
C184        N987   1.358       .  A
C184        C317   1.478   1_556  S
N185        C186   1.356       .  A
C186        N187   1.357   1_554  A
N187        C986   1.357       .  A
C188        N189   1.358       .  A
C188        N586   1.357       .  A
N189        C583   1.358       .  A
C190        N191   1.358   1_556  A
C190        N993   1.356       .  A
C190        C253   1.483       .  S
N191        C192   1.358       .  A
C192        N193   1.358   1_554  A
N193        C992   1.357       .  A
C194        N195   1.356       .  A
C194        N592   1.357       .  A
N195        C589   1.356       .  A
C196        N201   1.358   1_556  A
C196        N995   1.356       .  A
C196        C221   1.475       .  S
N197        C198   1.356       .  A
N197        C595   1.356       .  A
C198        N598   1.357       .  A
N199        C200   1.358   1_556  A
N199        C996   1.357       .  A
C200        N201   1.358       .  A
C202        N203   1.355   1_556  A
C202       N1005   1.357       .  A
C202        C372   1.477   1_556  S
N203        C204   1.355       .  A
C204        N205   1.357   1_554  A
N205       C1004   1.357       .  A
C206        N207   1.358       .  A
C206        N604   1.357       .  A
N207        C601   1.357       .  A
C208        C209   1.400   1_554  A
C208        C213   1.402       .  A
C208        H218   1.085       .  S
C209        C214   1.477       .  S
C209       C1008   1.409       .  A
C210        C211   1.402       .  A
C210        C608   1.409       .  A
C210        C215   1.506       .  S
C211        C611   1.406       .  A
C211        H216   1.084       .  S
C212        C213   1.418   1_556  A
C212       C1009   1.406       .  A
C213        C217   1.508       .  S
C214        C223   1.401   1_556  A
C214       C1017   1.409       .  A
C215        H231   1.110       .  S
C215        H232   1.110       .  S
C215        H233   1.111       .  S
C217        H228   1.111       .  S
C217        H229   1.110       .  S
C217        H230   1.106       .  S
C219        C220   1.402       .  A
C219        C613   1.409       .  A
C219        C224   1.507       .  S
C220        C620   1.404       .  A
C220        H225   1.084       .  S
C221        C222   1.416   1_556  A
C221       C1018   1.404       .  A
C222        C223   1.403       .  A
C222        C226   1.507       .  S
C223        H227   1.084       .  S
C224        H234   1.111       .  S
C224        H235   1.110       .  S
C224        H236   1.110       .  S
C226        H237   1.110       .  S
C226        H238   1.107       .  S
C226        H239   1.111       .  S
C240        C245   1.403       .  A
C240        C640   1.400       .  A
C240        H250   1.085       .  S
C241        C246   1.479       .  S
C241        C242   1.410   1_556  A
C241       C1038   1.400       .  A
C242        C243   1.403       .  A
C242        C247   1.506       .  S
C243        C244   1.404   1_554  A
C243        H248   1.084       .  S
C244       C1043   1.418       .  A
C245        C643   1.418       .  A
C245        C249   1.509       .  S
C246        C251   1.409   1_556  A
C246       C1053   1.400       .  A
C247        H263   1.110       .  S
C247        H264   1.110       .  S
C247        H265   1.111       .  S
C249        H260   1.111       .  S
C249        H261   1.110       .  S
C249        H262   1.106       .  S
C251        C252   1.403       .  A
C251        C256   1.506       .  S
C252        C253   1.405   1_554  A
C252        H257   1.084       .  S
C253       C1052   1.419       .  A
C254        C255   1.405       .  A
C254        C652   1.419       .  A
C254        C258   1.508       .  S
C255        C645   1.400       .  A
C255        H259   1.084       .  S
C256        H266   1.111       .  S
C256        H267   1.110       .  S
C256        H268   1.110       .  S
C258        H269   1.109       .  S
C258        H270   1.111       .  S
C258        H271   1.111       .  S
C272        C277   1.400       .  A
C272        C672   1.399       .  A
C272        H282   1.085       .  S
C273        C278   1.478       .  S
C273        C274   1.410       .  A
C273       C1070   1.399   1_554  A
C274        C275   1.406       .  A
C274        C279   1.505       .  S
C275        C276   1.404   1_554  A
C275        H280   1.084       .  S
C276       C1075   1.416       .  A
C277        C675   1.416       .  A
C277        C281   1.509       .  S
C278        C283   1.409       .  A
C278       C1085   1.400   1_554  A
C279        H295   1.110       .  S
C279        H296   1.110       .  S
C279        H297   1.111       .  S
C281        H292   1.111       .  S
C281        H293   1.110       .  S
C281        H294   1.106       .  S
C283        C284   1.400       .  A
C283        C288   1.507       .  S
C284        C285   1.406       .  A
C284        H289   1.084       .  S
C285       C1084   1.420   1_554  A
C286        C287   1.405       .  A
C286        C684   1.420       .  A
C286        C290   1.507       .  S
C287        C677   1.400       .  A
C287        H291   1.084       .  S
C288        H298   1.111       .  S
C288        H299   1.110       .  S
C288        H300   1.110       .  S
C290        H301   1.110       .  S
C290        H302   1.107       .  S
C290        H303   1.111       .  S
C304        C309   1.403       .  A
C304        C704   1.400       .  A
C304        H314   1.085       .  S
C305        C310   1.479       .  S
C305        C306   1.410       .  A
C305       C1102   1.400   1_554  A
C306        C307   1.403       .  A
C306        C311   1.507       .  S
C307        C308   1.405       .  A
C307        H312   1.084       .  S
C308       C1107   1.418   1_554  A
C309        C707   1.418       .  A
C309        C313   1.508       .  S
C310        C315   1.409       .  A
C310       C1117   1.400   1_554  A
C311        H327   1.110       .  S
C311        H328   1.110       .  S
C311        H329   1.111       .  S
C313        H324   1.111       .  S
C313        H325   1.110       .  S
C313        H326   1.106       .  S
C315        C316   1.403       .  A
C315        C320   1.506       .  S
C316        C317   1.405       .  A
C316        H321   1.084       .  S
C317       C1116   1.417   1_554  A
C318        C319   1.403       .  A
C318        C716   1.417       .  A
C318        C322   1.508       .  S
C319        C709   1.400       .  A
C319        H323   1.085       .  S
C320        H330   1.111       .  S
C320        H331   1.110       .  S
C320        H332   1.110       .  S
C322        H333   1.110       .  S
C322        H334   1.106       .  S
C322        H335   1.111       .  S
C336        C341   1.404       .  A
C336        C736   1.400       .  A
C336        H346   1.084       .  S
C337        C342   1.475   1_554  S
C337        C338   1.409       .  A
C337       C1134   1.400   1_554  A
C338        C339   1.399       .  A
C338        C343   1.508       .  S
C339        C340   1.405       .  A
C339        H344   1.084       .  S
C340       C1139   1.419   1_554  A
C341        C739   1.419       .  A
C341        C345   1.507       .  S
C342        C347   1.409   1_556  A
C342       C1149   1.398       .  A
C343        H359   1.110       .  S
C343        H360   1.110       .  S
C343        H361   1.111       .  S
C345        H356   1.111       .  S
C345        H357   1.110       .  S
C345        H358   1.107       .  S
C347        C348   1.405       .  A
C347        C352   1.505       .  S
C348        C349   1.404   1_554  A
C348        H353   1.084       .  S
C349       C1148   1.417       .  A
C350        C351   1.398       .  A
C350        C748   1.417       .  A
C350        C354   1.510       .  S
C351        C741   1.398       .  A
C351        H355   1.085       .  S
C352        H362   1.111       .  S
C352        H363   1.110       .  S
C352        H364   1.110       .  S
C354        H365   1.110       .  S
C354        H366   1.106       .  S
C354        H367   1.111       .  S
C368        C373   1.402       .  A
C368        C768   1.400       .  A
C368        H378   1.085       .  S
C369        C374   1.476       .  S
C369        C370   1.408       .  A
C369       C1166   1.400   1_554  A
C370        C371   1.401       .  A
C370        C375   1.507       .  S
C371        C372   1.406       .  A
C371        H376   1.084       .  S
C372       C1171   1.417   1_554  A
C373        C771   1.417       .  A
C373        C377   1.508       .  S
C374        C379   1.409       .  A
C374       C1181   1.400   1_554  A
C375        H391   1.110       .  S
C375        H392   1.110       .  S
C375        H393   1.111       .  S
C377        H388   1.111       .  S
C377        H389   1.110       .  S
C377        H390   1.106       .  S
C379        C380   1.402       .  A
C379        C384   1.507       .  S
C380        C381   1.405       .  A
C380        H385   1.084       .  S
C381       C1180   1.417   1_554  A
C382        C383   1.402       .  A
C382        C780   1.417       .  A
C382        C386   1.508       .  S
C383        C773   1.400       .  A
C383        H387   1.085       .  S
C384        H394   1.111       .  S
C384        H395   1.110       .  S
C384        H396   1.110       .  S
C386        H397   1.110       .  S
C386        H398   1.107       .  S
C386        H399   1.111       .  S
C400        N401   1.357       .  A
C400        C780   1.475       .  S
N401        C402   1.357       .  A
C402        C431   1.458       .  S
N403        C801   1.358       .  A
N403        C404   1.358       .  A
C404        N405   1.357       .  A
C404        C432   1.459       .  S
N405        C799   1.357       .  A
C406        N411   1.357       .  A
C406        C739   1.480       .  S
N407        C805   1.358       .  A
N407        C408   1.357       .  A
C408        N808   1.357       .  A
C408        C455   1.457       .  S
N409        C410   1.357       .  A
C410        N411   1.355       .  A
C410        C456   1.456       .  S
N412        N413   1.318       .  A
N412        N418   1.316       .  A
N412       Mn441   2.191       .  S
N413        C420   1.349       .  A
N414        N416   1.316       .  A
N414        N415   1.323       .  A
N414       Mn430   2.208   1_545  S
N415        C421   1.353       .  A
N416        N417   1.317       .  A
N416       Mn441   2.193       .  S
N417        C421   1.349       .  A
N418        N419   1.323       .  A
N418       Mn430   2.211   1_545  S
N419        C420   1.353       .  A
C420        C465   1.459       .  S
C421        C467   1.458       .  S
N422        N428   1.316       .  A
N422        N423   1.323       .  A
N422       Mn452   2.209       .  S
N423        C431   1.353       .  A
N424        N425   1.317       .  A
N424        N426   1.316       .  A
N424       Mn430   2.189       .  S
N425        C432   1.348       .  A
N426        N427   1.324       .  A
N426       Mn452   2.212       .  S
N427        C432   1.353       .  A
N428        N429   1.317       .  A
N428       Mn430   2.191       .  S
N429        C431   1.349       .  A
Mn430      Cl454   2.547   1_565  S
N433        N434   1.323       .  A
N433        N439   1.316       .  A
N433       Mn441   2.213       .  S
N434        C442   1.354       .  A
N435        N437   1.316       .  A
N435        N436   1.317       .  A
N435       Mn453   2.188       .  S
N436        C443   1.348       .  A
N437        N438   1.323       .  A
N437       Mn441   2.212       .  S
N438        C443   1.353       .  A
N439        N440   1.317       .  A
N439       Mn453   2.189       .  S
N440        C442   1.348       .  A
Mn441      Cl454   2.548       .  S
C442        C461   1.459       .  S
C443        C459   1.459       .  S
N444        N445   1.317       .  A
N444        N450   1.316   1_565  A
N444       Mn452   2.190       .  S
N445        C455   1.349       .  A
N446        N447   1.322       .  A
N446        N448   1.316   1_545  A
N446       Mn453   2.202       .  S
N447        C456   1.351   1_545  A
N448        N449   1.317       .  A
N448       Mn452   2.194       .  S
N449        C456   1.350       .  A
N450        N451   1.323       .  A
N450       Mn453   2.207       .  S
N451        C455   1.352   1_545  A
Mn452      Cl454   2.548   1_565  S
Mn453      Cl454   2.547       .  S
C457        N462   1.358       .  A
C457        C707   1.479       .  S
N458        C856   1.358       .  A
N458        C459   1.357       .  A
C459        N859   1.357       .  A
N460        C461   1.357       .  A
C461        N462   1.358       .  A
C463        N468   1.358       .  A
C463        C684   1.484       .  S
N464        C862   1.358       .  A
N464        C465   1.357       .  A
C465        N865   1.357       .  A
N466        C467   1.357       .  A
C467        N468   1.356       .  A
N469        N470   1.323       .  A
N469        N475   1.316       .  A
N469       Mn498   2.209       .  S
N470        C477   1.353       .  A
N471        N473   1.316       .  A
N471        N472   1.316       .  A
N471       Mn487   2.184   1_655  S
N472        C478   1.348       .  A
N473        N474   1.323       .  A
N473       Mn498   2.209       .  S
N474        C478   1.353       .  A
N475        N476   1.316       .  A
N475       Mn487   2.185   1_655  S
N476        C477   1.348       .  A
C477        C528   1.456       .  S
C478        C530   1.455       .  S
N479        N485   1.316       .  A
N479        N480   1.317       .  A
N479       Mn509   2.192       .  S
N480        C488   1.349       .  A
N481        N482   1.323       .  A
N481        N483   1.316       .  A
N481       Mn487   2.205       .  S
N482        C489   1.352       .  A
N483        N484   1.317       .  A
N483       Mn509   2.194       .  S
N484        C489   1.349       .  A
N485        N486   1.323       .  A
N485       Mn487   2.208       .  S
N486        C488   1.353       .  A
Mn487      Cl511   2.547       .  S
C488        C536   1.460       .  S
C489        C534   1.458       .  S
N490        N491   1.317       .  A
N490        N496   1.316       .  A
N490       Mn498   2.190   1_455  S
N491        C499   1.349       .  A
N492        N494   1.316       .  A
N492        N493   1.324       .  A
N492       Mn510   2.210       .  S
N493        C500   1.353       .  A
N494        N495   1.316       .  A
N494       Mn498   2.190   1_455  S
N495        C500   1.349       .  A
N496        N497   1.324       .  A
N496       Mn510   2.213       .  S
N497        C499   1.354       .  A
Mn498      Cl511   2.546   1_655  S
C499        C524   1.461       .  S
C500        C522   1.459       .  S
N501        N502   1.324       .  A
N501        N507   1.316       .  A
N501       Mn509   2.212       .  S
N502        C512   1.354       .  A
N503        N504   1.316       .  A
N503        N505   1.316       .  A
N503       Mn510   2.185       .  S
N504        C513   1.347       .  A
N505        N506   1.324       .  A
N505       Mn509   2.215       .  S
N506        C513   1.354       .  A
N507        N508   1.316       .  A
N507       Mn510   2.186       .  S
N508        C512   1.348       .  A
Mn509      Cl511   2.547       .  S
Mn510      Cl511   2.547       .  S
C512        C516   1.458       .  S
C513        C518   1.458       .  S
C514        N519   1.356       .  A
C514        C643   1.475       .  S
N515        C913   1.356       .  A
N515        C516   1.357       .  A
C516        N517   1.358       .  A
N517        C917   1.358       .  A
C518        N519   1.357       .  A
C520        N525   1.356       .  A
C520        C675   1.472       .  S
N521        C919   1.355       .  A
N521        C522   1.356   1_655  A
C522        N922   1.359       .  A
N523        C524   1.360       .  A
C524        N525   1.358   1_455  A
C526        N531   1.356       .  A
C526        C611   1.477       .  S
N527        C925   1.357       .  A
N527        C528   1.356       .  A
C528        N529   1.357       .  A
N529        C929   1.357       .  A
C530        N531   1.356       .  A
C532        N537   1.356       .  A
C532        C748   1.470       .  S
N533        C931   1.355       .  A
N533        C534   1.355       .  A
C534        N934   1.359       .  A
N535        C536   1.359       .  A
C536        N537   1.357       .  A
N538        N539   1.323       .  A
N538        N544   1.316       .  A
N538       Mn567   2.212       .  S
N539        C546   1.353       .  A
N540        N542   1.316       .  A
N540        N541   1.317       .  A
N540       Mn556   2.187       .  S
N541        C547   1.348       .  A
N542        N543   1.323       .  A
N542       Mn567   2.212       .  S
N543        C547   1.354       .  A
N544        N545   1.316       .  A
N544       Mn556   2.187       .  S
N545        C546   1.348       .  A
C546        C585   1.457       .  S
C547        C587   1.458       .  S
N548        N554   1.316       .  A
N548        N549   1.323       .  A
N548       Mn578   2.210       .  S
N549        C557   1.353       .  A
N550        N551   1.317       .  A
N550        N552   1.315       .  A
N550       Mn556   2.189       .  S
N551        C558   1.348       .  A
N552        N553   1.323       .  A
N552       Mn578   2.211       .  S
N553        C558   1.354       .  A
N554        N555   1.317       .  A
N554       Mn556   2.189       .  S
N555        C557   1.348       .  A
Mn556      Cl580   2.546       .  S
C557        C597   1.458       .  S
C558        C599   1.459       .  S
N559        N560   1.324       .  A
N559        N565   1.316       .  A
N559       Mn567   2.214       .  S
N560        C568   1.354       .  A
N561        N563   1.315       .  A
N561        N562   1.316       .  A
N561       Mn579   2.185       .  S
N562        C569   1.348       .  A
N563        N564   1.324       .  A
N563       Mn567   2.215       .  S
N564        C569   1.355       .  A
N565        N566   1.316       .  A
N565       Mn579   2.184       .  S
N566        C568   1.347       .  A
Mn567      Cl580   2.547       .  S
C568        C593   1.458       .  S
C569        C591   1.459       .  S
N570        N571   1.323       .  A
N570        N576   1.316       .  A
N570       Mn578   2.208       .  S
N571        C581   1.353       .  A
N572        N573   1.316       .  A
N572        N574   1.316       .  A
N572       Mn579   2.184       .  S
N573        C582   1.347       .  A
N574        N575   1.323       .  A
N574       Mn578   2.210       .  S
N575        C582   1.354       .  A
N576        N577   1.316       .  A
N576       Mn579   2.184       .  S
N577        C581   1.347       .  A
Mn578      Cl580   2.547       .  S
Mn579      Cl580   2.546       .  S
C581        C603   1.454       .  S
C582        C605   1.456       .  S
C583        N584   1.357       .  A
C583        C716   1.478       .  S
N584        C585   1.356       .  A
C585        N586   1.357       .  A
C587        N985   1.357       .  A
C587        N588   1.358       .  A
N588        C982   1.358       .  A
C589        N590   1.358       .  A
C589        C652   1.483       .  S
N590        C591   1.358       .  A
C591        N592   1.358       .  A
C593        N991   1.357       .  A
C593        N594   1.356       .  A
N594        C988   1.356       .  A
C595        N600   1.358       .  A
C595        C620   1.475       .  S
N596        C994   1.356       .  A
N596        C597   1.356       .  A
C597        N997   1.357       .  A
N598        C599   1.358       .  A
C599        N600   1.358       .  A
C601        N602   1.355       .  A
C601        C771   1.477       .  S
N602        C603   1.355       .  A
C603        N604   1.357       .  A
C605       N1003   1.357       .  A
C605        N606   1.358       .  A
N606       C1000   1.357       .  A
C607        C608   1.400       .  A
C607        C612   1.402       .  A
C607        H617   1.085       .  S
C608        C613   1.477       .  S
C609       C1007   1.409       .  A
C609        C610   1.402       .  A
C609        C614   1.506       .  S
C610       C1010   1.406       .  A
C610        H615   1.084       .  S
C611        C612   1.418       .  A
C612        C616   1.508       .  S
C613        C622   1.401       .  A
C614        H630   1.110       .  S
C614        H631   1.110       .  S
C614        H632   1.111       .  S
C616        H627   1.111       .  S
C616        H628   1.110       .  S
C616        H629   1.106       .  S
C618       C1012   1.409       .  A
C618        C619   1.402       .  A
C618        C623   1.507       .  S
C619       C1019   1.404       .  A
C619        H624   1.084       .  S
C620        C621   1.416       .  A
C621        C622   1.403       .  A
C621        C625   1.507       .  S
C622        H626   1.084       .  S
C623        H633   1.111       .  S
C623        H634   1.110       .  S
C623        H635   1.110       .  S
C625        H636   1.110       .  S
C625        H637   1.107       .  S
C625        H638   1.111       .  S
C639       C1039   1.400       .  A
C639        C644   1.403       .  A
C639        H649   1.085       .  S
C640        C645   1.479       .  S
C640        C641   1.410       .  A
C641        C642   1.403       .  A
C641        C646   1.506       .  S
C642        C643   1.404       .  A
C642        H647   1.084       .  S
C644       C1042   1.418       .  A
C644        C648   1.509       .  S
C645        C650   1.409       .  A
C646        H662   1.110       .  S
C646        H663   1.110       .  S
C646        H664   1.111       .  S
C648        H659   1.111       .  S
C648        H660   1.110       .  S
C648        H661   1.106       .  S
C650        C651   1.403       .  A
C650        C655   1.506       .  S
C651        C652   1.405       .  A
C651        H656   1.084       .  S
C653       C1051   1.419       .  A
C653        C654   1.405       .  A
C653        C657   1.508       .  S
C654       C1044   1.400       .  A
C654        H658   1.084       .  S
C655        H665   1.111       .  S
C655        H666   1.110       .  S
C655        H667   1.110       .  S
C657        H668   1.109       .  S
C657        H669   1.111       .  S
C657        H670   1.111       .  S
C671       C1071   1.399       .  A
C671        C676   1.400       .  A
C671        H681   1.085       .  S
C672        C677   1.478       .  S
C672        C673   1.410       .  A
C673        C674   1.406       .  A
C673        C678   1.505       .  S
C674        C675   1.404       .  A
C674        H679   1.084       .  S
C676       C1074   1.416       .  A
C676        C680   1.509       .  S
C677        C682   1.409       .  A
C678        H694   1.110       .  S
C678        H695   1.110       .  S
C678        H696   1.111       .  S
C680        H691   1.111       .  S
C680        H692   1.110       .  S
C680        H693   1.106       .  S
C682        C683   1.400       .  A
C682        C687   1.507       .  S
C683        C684   1.406       .  A
C683        H688   1.084       .  S
C685       C1083   1.420       .  A
C685        C686   1.405       .  A
C685        C689   1.507       .  S
C686       C1076   1.400       .  A
C686        H690   1.084       .  S
C687        H697   1.111       .  S
C687        H698   1.110       .  S
C687        H699   1.110       .  S
C689        H700   1.110       .  S
C689        H701   1.107       .  S
C689        H702   1.111       .  S
C703       C1103   1.400       .  A
C703        C708   1.403       .  A
C703        H713   1.085       .  S
C704        C709   1.479       .  S
C704        C705   1.410       .  A
C705        C706   1.403       .  A
C705        C710   1.507       .  S
C706        C707   1.405       .  A
C706        H711   1.084       .  S
C708       C1106   1.418       .  A
C708        C712   1.508       .  S
C709        C714   1.409       .  A
C710        H726   1.110       .  S
C710        H727   1.110       .  S
C710        H728   1.111       .  S
C712        H723   1.111       .  S
C712        H724   1.110       .  S
C712        H725   1.106       .  S
C714        C715   1.403       .  A
C714        C719   1.506       .  S
C715        C716   1.405       .  A
C715        H720   1.084       .  S
C717       C1115   1.417       .  A
C717        C718   1.403       .  A
C717        C721   1.508       .  S
C718       C1108   1.400       .  A
C718        H722   1.085       .  S
C719        H729   1.111       .  S
C719        H730   1.110       .  S
C719        H731   1.110       .  S
C721        H732   1.110       .  S
C721        H733   1.106       .  S
C721        H734   1.111       .  S
C735       C1135   1.400       .  A
C735        C740   1.404       .  A
C735        H745   1.084       .  S
C736        C741   1.475       .  S
C736        C737   1.409       .  A
C737        C738   1.399       .  A
C737        C742   1.508       .  S
C738        C739   1.405       .  A
C738        H743   1.084       .  S
C740       C1138   1.419       .  A
C740        C744   1.507       .  S
C741        C746   1.409       .  A
C742        H758   1.110       .  S
C742        H759   1.110       .  S
C742        H760   1.111       .  S
C744        H755   1.111       .  S
C744        H756   1.110       .  S
C744        H757   1.107       .  S
C746        C747   1.405       .  A
C746        C751   1.505       .  S
C747        C748   1.404       .  A
C747        H752   1.084       .  S
C749       C1147   1.417       .  A
C749        C750   1.398       .  A
C749        C753   1.510       .  S
C750       C1140   1.398       .  A
C750        H754   1.085       .  S
C751        H761   1.111       .  S
C751        H762   1.110       .  S
C751        H763   1.110       .  S
C753        H764   1.110       .  S
C753        H765   1.106       .  S
C753        H766   1.111       .  S
C767       C1167   1.400       .  A
C767        C772   1.402       .  A
C767        H777   1.085       .  S
C768        C773   1.476       .  S
C768        C769   1.408       .  A
C769        C770   1.401       .  A
C769        C774   1.507       .  S
C770        C771   1.406       .  A
C770        H775   1.084       .  S
C772       C1170   1.417       .  A
C772        C776   1.508       .  S
C773        C778   1.409       .  A
C774        H790   1.110       .  S
C774        H791   1.110       .  S
C774        H792   1.111       .  S
C776        H787   1.111       .  S
C776        H788   1.110       .  S
C776        H789   1.106       .  S
C778        C779   1.402       .  A
C778        C783   1.507       .  S
C779        C780   1.405       .  A
C779        H784   1.084       .  S
C781       C1179   1.417       .  A
C781        C782   1.402       .  A
C781        C785   1.508       .  S
C782       C1172   1.400       .  A
C782        H786   1.085       .  S
C783        H793   1.111       .  S
C783        H794   1.110       .  S
C783        H795   1.110       .  S
C785        H796   1.110       .  S
C785        H797   1.107       .  S
C785        H798   1.111       .  S
C799        N800   1.357       .  A
C799       C1179   1.475       .  S
N800        C801   1.357       .  A
C801        C830   1.458       .  S
N802        C803   1.358   1_554  A
C803        N804   1.357       .  A
C803        C831   1.459       .  S
C805        N810   1.357       .  A
C805       C1138   1.480       .  S
N806        C807   1.357       .  A
C807        C854   1.457       .  S
N808        C809   1.357       .  A
C809        N810   1.355       .  A
C809        C855   1.456       .  S
N811        N812   1.318       .  A
N811        N817   1.316       .  A
N811       Mn840   2.191       .  S
N812        C819   1.349       .  A
N813        N815   1.316       .  A
N813        N814   1.323       .  A
N813       Mn829   2.208   1_545  S
N814        C820   1.353       .  A
N815        N816   1.317       .  A
N815       Mn840   2.193       .  S
N816        C820   1.349       .  A
N817        N818   1.323       .  A
N817       Mn829   2.211   1_545  S
N818        C819   1.353       .  A
C819        C864   1.459       .  S
C820        C866   1.458       .  S
N821        N827   1.316       .  A
N821        N822   1.323       .  A
N821       Mn851   2.209       .  S
N822        C830   1.353       .  A
N823        N824   1.317       .  A
N823        N825   1.316       .  A
N823       Mn829   2.189       .  S
N824        C831   1.348       .  A
N825        N826   1.324       .  A
N825       Mn851   2.212       .  S
N826        C831   1.353       .  A
N827        N828   1.317       .  A
N827       Mn829   2.191       .  S
N828        C830   1.349       .  A
Mn829      Cl853   2.547   1_565  S
N832        N833   1.323       .  A
N832        N838   1.316       .  A
N832       Mn840   2.213       .  S
N833        C841   1.354       .  A
N834        N836   1.316       .  A
N834        N835   1.317       .  A
N834       Mn852   2.188       .  S
N835        C842   1.348       .  A
N836        N837   1.323       .  A
N836       Mn840   2.212       .  S
N837        C842   1.353       .  A
N838        N839   1.317       .  A
N838       Mn852   2.189       .  S
N839        C841   1.348       .  A
Mn840      Cl853   2.548       .  S
C841        C860   1.459       .  S
C842        C858   1.459       .  S
N843        N844   1.317       .  A
N843        N849   1.316   1_565  A
N843       Mn851   2.190       .  S
N844        C854   1.349       .  A
N845        N846   1.322       .  A
N845        N847   1.316   1_545  A
N845       Mn852   2.202       .  S
N846        C855   1.351   1_545  A
N847        N848   1.317       .  A
N847       Mn851   2.194       .  S
N848        C855   1.350       .  A
N849        N850   1.323       .  A
N849       Mn852   2.207       .  S
N850        C854   1.352   1_545  A
Mn851      Cl853   2.548   1_565  S
Mn852      Cl853   2.547       .  S
C856        N861   1.358       .  A
C856       C1106   1.479       .  S
N857        C858   1.357       .  A
N859        C860   1.357       .  A
C860        N861   1.358       .  A
C862        N867   1.358       .  A
C862       C1083   1.484       .  S
N863        C864   1.357       .  A
N865        C866   1.357       .  A
C866        N867   1.356       .  A
N868        N869   1.323       .  A
N868        N874   1.316       .  A
N868       Mn897   2.209       .  S
N869        C876   1.353       .  A
N870        N872   1.316       .  A
N870        N871   1.316       .  A
N870       Mn886   2.184   1_655  S
N871        C877   1.348       .  A
N872        N873   1.323       .  A
N872       Mn897   2.209       .  S
N873        C877   1.353       .  A
N874        N875   1.316       .  A
N874       Mn886   2.185   1_655  S
N875        C876   1.348       .  A
C876        C927   1.456       .  S
C877        C929   1.455       .  S
N878        N884   1.316       .  A
N878        N879   1.317       .  A
N878       Mn908   2.192       .  S
N879        C887   1.349       .  A
N880        N881   1.323       .  A
N880        N882   1.316       .  A
N880       Mn886   2.205       .  S
N881        C888   1.352       .  A
N882        N883   1.317       .  A
N882       Mn908   2.194       .  S
N883        C888   1.349       .  A
N884        N885   1.323       .  A
N884       Mn886   2.208       .  S
N885        C887   1.353       .  A
Mn886      Cl910   2.547       .  S
C887        C935   1.460       .  S
C888        C933   1.458       .  S
N889        N890   1.317       .  A
N889        N895   1.316       .  A
N889       Mn897   2.190   1_455  S
N890        C898   1.349       .  A
N891        N893   1.316       .  A
N891        N892   1.324       .  A
N891       Mn909   2.210       .  S
N892        C899   1.353       .  A
N893        N894   1.316       .  A
N893       Mn897   2.190   1_455  S
N894        C899   1.349       .  A
N895        N896   1.324       .  A
N895       Mn909   2.213       .  S
N896        C898   1.354       .  A
Mn897      Cl910   2.546   1_655  S
C898        C923   1.461       .  S
C899        C921   1.459       .  S
N900        N901   1.324       .  A
N900        N906   1.316       .  A
N900       Mn908   2.212       .  S
N901        C911   1.354       .  A
N902        N903   1.316       .  A
N902        N904   1.316       .  A
N902       Mn909   2.185       .  S
N903        C912   1.347       .  A
N904        N905   1.324       .  A
N904       Mn908   2.215       .  S
N905        C912   1.354       .  A
N906        N907   1.316       .  A
N906       Mn909   2.186       .  S
N907        C911   1.348       .  A
Mn908      Cl910   2.547       .  S
Mn909      Cl910   2.547       .  S
C911        C915   1.458       .  S
C912        C917   1.458       .  S
C913        N918   1.356       .  A
C913       C1042   1.475       .  S
N914        C915   1.357       .  A
C915        N916   1.358       .  A
C917        N918   1.357       .  A
C919        N924   1.356       .  A
C919       C1074   1.472       .  S
N920        C921   1.356   1_655  A
N922        C923   1.360       .  A
C923        N924   1.358   1_455  A
C925        N930   1.356       .  A
C925       C1010   1.477       .  S
N926        C927   1.356       .  A
C927        N928   1.357       .  A
C929        N930   1.356       .  A
C931        N936   1.356       .  A
C931       C1147   1.470       .  S
N932        C933   1.355       .  A
N934        C935   1.359       .  A
C935        N936   1.357       .  A
N937        N938   1.323       .  A
N937        N943   1.316       .  A
N937       Mn966   2.212       .  S
N938        C945   1.353       .  A
N939        N941   1.316       .  A
N939        N940   1.317       .  A
N939       Mn955   2.187       .  S
N940        C946   1.348       .  A
N941        N942   1.323       .  A
N941       Mn966   2.212       .  S
N942        C946   1.354       .  A
N943        N944   1.316       .  A
N943       Mn955   2.187       .  S
N944        C945   1.348       .  A
C945        C984   1.457       .  S
C946        C986   1.458       .  S
N947        N953   1.316       .  A
N947        N948   1.323       .  A
N947       Mn977   2.210       .  S
N948        C956   1.353       .  A
N949        N950   1.317       .  A
N949        N951   1.315       .  A
N949       Mn955   2.189       .  S
N950        C957   1.348       .  A
N951        N952   1.323       .  A
N951       Mn977   2.211       .  S
N952        C957   1.354       .  A
N953        N954   1.317       .  A
N953       Mn955   2.189       .  S
N954        C956   1.348       .  A
Mn955      Cl979   2.546       .  S
C956        C996   1.458       .  S
C957        C998   1.459       .  S
N958        N959   1.324       .  A
N958        N964   1.316       .  A
N958       Mn966   2.214       .  S
N959        C967   1.354       .  A
N960        N962   1.315       .  A
N960        N961   1.316       .  A
N960       Mn978   2.185       .  S
N961        C968   1.348       .  A
N962        N963   1.324       .  A
N962       Mn966   2.215       .  S
N963        C968   1.355       .  A
N964        N965   1.316       .  A
N964       Mn978   2.184       .  S
N965        C967   1.347       .  A
Mn966      Cl979   2.547       .  S
C967        C992   1.458       .  S
C968        C990   1.459       .  S
N969        N970   1.323       .  A
N969        N975   1.316       .  A
N969       Mn977   2.208       .  S
N970        C980   1.353       .  A
N971        N972   1.316       .  A
N971        N973   1.316       .  A
N971       Mn978   2.184       .  S
N972        C981   1.347       .  A
N973        N974   1.323       .  A
N973       Mn977   2.210       .  S
N974        C981   1.354       .  A
N975        N976   1.316       .  A
N975       Mn978   2.184       .  S
N976        C980   1.347       .  A
Mn977      Cl979   2.547       .  S
Mn978      Cl979   2.546       .  S
C980       C1002   1.454       .  S
C981       C1004   1.456       .  S
C982        N983   1.357       .  A
C982       C1115   1.478       .  S
N983        C984   1.356       .  A
C984        N985   1.357       .  A
C986        N987   1.358       .  A
C988        N989   1.358       .  A
C988       C1051   1.483       .  S
N989        C990   1.358       .  A
C990        N991   1.358       .  A
C992        N993   1.356       .  A
C994        N999   1.358       .  A
C994       C1019   1.475       .  S
N995        C996   1.356       .  A
N997        C998   1.358       .  A
C998        N999   1.358       .  A
C1000      N1001   1.355       .  A
C1000      C1170   1.477       .  S
N1001      C1002   1.355       .  A
C1002      N1003   1.357       .  A
C1004      N1005   1.358       .  A
C1006      C1007   1.400       .  A
C1006      C1011   1.402       .  A
C1006      H1016   1.085       .  S
C1007      C1012   1.477       .  S
C1008      C1009   1.402       .  A
C1008      C1013   1.506       .  S
C1009      H1014   1.084       .  S
C1010      C1011   1.418       .  A
C1011      C1015   1.508       .  S
C1012      C1021   1.401       .  A
C1013      H1029   1.110       .  S
C1013      H1030   1.110       .  S
C1013      H1031   1.111       .  S
C1015      H1026   1.111       .  S
C1015      H1027   1.110       .  S
C1015      H1028   1.106       .  S
C1017      C1018   1.402       .  A
C1017      C1022   1.507       .  S
C1018      H1023   1.084       .  S
C1019      C1020   1.416       .  A
C1020      C1021   1.403       .  A
C1020      C1024   1.507       .  S
C1021      H1025   1.084       .  S
C1022      H1032   1.111       .  S
C1022      H1033   1.110       .  S
C1022      H1034   1.110       .  S
C1024      H1035   1.110       .  S
C1024      H1036   1.107       .  S
C1024      H1037   1.111       .  S
C1038      C1043   1.403       .  A
C1038      H1048   1.085       .  S
C1039      C1044   1.479       .  S
C1039      C1040   1.410       .  A
C1040      C1041   1.403       .  A
C1040      C1045   1.506       .  S
C1041      C1042   1.404       .  A
C1041      H1046   1.084       .  S
C1043      C1047   1.509       .  S
C1044      C1049   1.409       .  A
C1045      H1061   1.110       .  S
C1045      H1062   1.110       .  S
C1045      H1063   1.111       .  S
C1047      H1058   1.111       .  S
C1047      H1059   1.110       .  S
C1047      H1060   1.106       .  S
C1049      C1050   1.403       .  A
C1049      C1054   1.506       .  S
C1050      C1051   1.405       .  A
C1050      H1055   1.084       .  S
C1052      C1053   1.405       .  A
C1052      C1056   1.508       .  S
C1053      H1057   1.084       .  S
C1054      H1064   1.111       .  S
C1054      H1065   1.110       .  S
C1054      H1066   1.110       .  S
C1056      H1067   1.109       .  S
C1056      H1068   1.111       .  S
C1056      H1069   1.111       .  S
C1070      C1075   1.400       .  A
C1070      H1080   1.085       .  S
C1071      C1076   1.478       .  S
C1071      C1072   1.410       .  A
C1072      C1073   1.406       .  A
C1072      C1077   1.505       .  S
C1073      C1074   1.404       .  A
C1073      H1078   1.084       .  S
C1075      C1079   1.509       .  S
C1076      C1081   1.409       .  A
C1077      H1093   1.110       .  S
C1077      H1094   1.110       .  S
C1077      H1095   1.111       .  S
C1079      H1090   1.111       .  S
C1079      H1091   1.110       .  S
C1079      H1092   1.106       .  S
C1081      C1082   1.400       .  A
C1081      C1086   1.507       .  S
C1082      C1083   1.406       .  A
C1082      H1087   1.084       .  S
C1084      C1085   1.405       .  A
C1084      C1088   1.507       .  S
C1085      H1089   1.084       .  S
C1086      H1096   1.111       .  S
C1086      H1097   1.110       .  S
C1086      H1098   1.110       .  S
C1088      H1099   1.110       .  S
C1088      H1100   1.107       .  S
C1088      H1101   1.111       .  S
C1102      C1107   1.403       .  A
C1102      H1112   1.085       .  S
C1103      C1108   1.479       .  S
C1103      C1104   1.410       .  A
C1104      C1105   1.403       .  A
C1104      C1109   1.507       .  S
C1105      C1106   1.405       .  A
C1105      H1110   1.084       .  S
C1107      C1111   1.508       .  S
C1108      C1113   1.409       .  A
C1109      H1125   1.110       .  S
C1109      H1126   1.110       .  S
C1109      H1127   1.111       .  S
C1111      H1122   1.111       .  S
C1111      H1123   1.110       .  S
C1111      H1124   1.106       .  S
C1113      C1114   1.403       .  A
C1113      C1118   1.506       .  S
C1114      C1115   1.405       .  A
C1114      H1119   1.084       .  S
C1116      C1117   1.403       .  A
C1116      C1120   1.508       .  S
C1117      H1121   1.085       .  S
C1118      H1128   1.111       .  S
C1118      H1129   1.110       .  S
C1118      H1130   1.110       .  S
C1120      H1131   1.110       .  S
C1120      H1132   1.106       .  S
C1120      H1133   1.111       .  S
C1134      C1139   1.404       .  A
C1134      H1144   1.084       .  S
C1135      C1140   1.475       .  S
C1135      C1136   1.409       .  A
C1136      C1137   1.399       .  A
C1136      C1141   1.508       .  S
C1137      C1138   1.405       .  A
C1137      H1142   1.084       .  S
C1139      C1143   1.507       .  S
C1140      C1145   1.409       .  A
C1141      H1157   1.110       .  S
C1141      H1158   1.110       .  S
C1141      H1159   1.111       .  S
C1143      H1154   1.111       .  S
C1143      H1155   1.110       .  S
C1143      H1156   1.107       .  S
C1145      C1146   1.405       .  A
C1145      C1150   1.505       .  S
C1146      C1147   1.404       .  A
C1146      H1151   1.084       .  S
C1148      C1149   1.398       .  A
C1148      C1152   1.510       .  S
C1149      H1153   1.085       .  S
C1150      H1160   1.111       .  S
C1150      H1161   1.110       .  S
C1150      H1162   1.110       .  S
C1152      H1163   1.110       .  S
C1152      H1164   1.106       .  S
C1152      H1165   1.111       .  S
C1166      C1171   1.402       .  A
C1166      H1176   1.085       .  S
C1167      C1172   1.476       .  S
C1167      C1168   1.408       .  A
C1168      C1169   1.401       .  A
C1168      C1173   1.507       .  S
C1169      C1170   1.406       .  A
C1169      H1174   1.084       .  S
C1171      C1175   1.508       .  S
C1172      C1177   1.409       .  A
C1173      H1189   1.110       .  S
C1173      H1190   1.110       .  S
C1173      H1191   1.111       .  S
C1175      H1186   1.111       .  S
C1175      H1187   1.110       .  S
C1175      H1188   1.106       .  S
C1177      C1178   1.402       .  A
C1177      C1182   1.507       .  S
C1178      C1179   1.405       .  A
C1178      H1183   1.084       .  S
C1180      C1181   1.402       .  A
C1180      C1184   1.508       .  S
C1181      H1185   1.085       .  S
C1182      H1192   1.111       .  S
C1182      H1193   1.110       .  S
C1182      H1194   1.110       .  S
C1184      H1195   1.110       .  S
C1184      H1196   1.107       .  S
C1184      H1197   1.111       .  S
