geometry optimzed in LAMMPS
_audit_creation_date              2020-11-30 
_audit_creation_method            'lammps2cif' 
_symmetry_space_group_name_H-M    'P1' 
_symmetry_Int_Tables_number       1 
_symmetry_cell_setting            triclinic 
loop_ 
_symmetry_equiv_pos_as_xyz 
  x,y,z 
_cell_length_a                    45.00612664387427 
_cell_length_b                    42.10543311107595 
_cell_length_c                    42.46439239583263 
_cell_angle_alpha                 90.45651056195719 
_cell_angle_beta                  89.56051624271144 
_cell_angle_gamma                 89.280472473306 
loop_ 
_atom_site_label 
_atom_site_type_symbol 
_atom_site_fract_x 
_atom_site_fract_y 
_atom_site_fract_z 
_atom_site_charge 
C1          C  0.36864139  0.37871294  0.37886852    -0.03640
C2          C  0.11911304  0.11840628  0.12504660    -0.03640
N3          N  0.43197005  0.04134608  0.50712073    -0.07280
N4          N  0.41117867  0.06266432  0.50110268    -0.59400
N5          N  0.45264708  0.49668972  0.06713668    -0.06960
N6          N  0.43465755  0.49117382  0.09093879    -0.61520
N7          N  0.46172290  0.02633802  0.06827189    -0.06550
N8          N  0.44900277  0.04142860  0.09230143    -0.59370
N9          N  0.42086602  0.01256425  0.50655811    -0.06230
N10         N  0.39204303  0.01385090  0.50063467    -0.61880
C11         C  0.38658162  0.04523680  0.49671552     0.94900
C12         C  0.43262103  0.01905133  0.10656489     0.94680
N13         N  0.49958216  0.42269991  0.02213292    -0.07460
N14         N  0.51356916  0.39929259  0.03651353    -0.59970
N15         N  0.44345202  0.44766267  0.47634944    -0.05580
N16         N  0.41865605  0.43989578  0.46196992    -0.61230
N17         N  0.46680616  0.43800583  0.45988765    -0.07490
N18         N  0.45827992  0.42332691  0.43384860    -0.60240
N19         N  0.47576045  0.43161688  0.03812727    -0.05220
N20         N  0.47268238  0.41403309  0.06354112    -0.61310
Mn21       Mn  0.44781440  0.47153866  0.02219505     1.18440
C22         C  0.49654241  0.39415892  0.06223348     0.96980
C23         C  0.42821823  0.42495546  0.43549742     0.97650
N24         N  0.52188567  0.05792018  0.04379066    -0.07510
N25         N  0.53045379  0.07252825  0.06983764    -0.63820
N26         N  0.01213856  0.06454227  0.46510629    -0.06310
N27         N  0.01435488  0.08196311  0.43941874    -0.64490
N28         N  0.48935143  0.07421232  0.48230961    -0.07020
N29         N  0.47576307  0.09852113  0.46910201    -0.64080
N30         N  0.04517282  0.04855736  0.02705244    -0.05910
N31         N  0.07000818  0.05642658  0.04134439    -0.64770
Mn32       Mn  0.47644605  0.05056389  0.02569949     1.10660
C33         C  0.06049879  0.07114130  0.06799698     0.98210
C34         C  0.49149471  0.10307364  0.44239904     0.98280
N35         N  0.02690872  0.46962802  0.43512643    -0.07020
N36         N  0.03939527  0.45497388  0.41064845    -0.62400
N37         N  0.06785334  0.48375994  0.99639554    -0.06340
N38         N  0.09689771  0.48244437  0.00107057    -0.59130
N39         N  0.05681681  0.45494784  0.99609490    -0.07650
N40         N  0.07787457  0.43360889  0.00091881    -0.61960
N41         N  0.03528303  0.49951861  0.43615541    -0.06640
N42         N  0.05237455  0.00574488  0.41184121    -0.59150
Mn43       Mn  0.01233341  0.44559862  0.47803942     1.20190
Mn44       Mn  0.04047217  0.02469654  0.48098833     1.10090
Cl45       Cl  0.49428395  0.49809431  0.50173385    -0.87120
C46         C  0.05474658  0.47800438  0.39601192     0.95210
C47         C  0.10257252  0.45101835  0.00447715     0.95010
N48         N  0.27880265  0.30265900  0.45500778    -0.07280
N49         N  0.28775070  0.32688828  0.43789021    -0.59400
N50         N  0.28048954  0.22550130  0.43565991    -0.06960
N51         N  0.28655451  0.20020896  0.41796122    -0.61520
N52         N  0.25738741  0.24102337  0.42449283    -0.06550
N53         N  0.24708039  0.22657763  0.39928809    -0.59370
N54         N  0.30188537  0.28720978  0.46653106    -0.06230
N55         N  0.32684719  0.30075855  0.45732178    -0.61880
C56         C  0.31767146  0.32578059  0.43999258     0.94900
C57         C  0.26564700  0.20148859  0.39522819     0.94680
N58         N  0.27606477  0.17885221  0.02105752    -0.07460
N59         N  0.27942646  0.14778240  0.02500063    -0.59970
N60         N  0.31100953  0.24943424  0.03172045    -0.05580
N61         N  0.33406611  0.26535732  0.04262989    -0.61230
N62         N  0.29407710  0.24036290  0.05531382    -0.07490
N63         N  0.30464940  0.25029129  0.08231526    -0.60240
N64         N  0.29206273  0.18813846  0.49682794    -0.05220
N65         N  0.30581431  0.16383520  0.48341566    -0.61310
Mn66       Mn  0.29745382  0.23763014  0.48280170     1.18440
C67         C  0.29776101  0.13876006  0.00086020     0.96980
C68         C  0.32938048  0.26593725  0.07433288     0.97650
N69         N  0.19366553  0.25421037  0.44648351    -0.07510
N70         N  0.18281615  0.24405896  0.41968844    -0.63820
N71         N  0.19620558  0.30743019  0.50430164    -0.06310
N72         N  0.18252947  0.33220932  0.01704079    -0.64490
N73         N  0.21203589  0.31598508  0.47969353    -0.07020
N74         N  0.20873862  0.34685947  0.47476503    -0.64080
N75         N  0.17676117  0.24569415  0.47029204    -0.05910
N76         N  0.15349239  0.22986662  0.45979270    -0.64770
Mn77       Mn  0.23532436  0.27938600  0.45108437     1.10660
C78         C  0.15796596  0.22880667  0.42807707     0.98210
C79         C  0.19059975  0.35668068  0.49869217     0.98280
N80         N  0.23031064  0.25319559  0.07758967    -0.07020
N81         N  0.23984653  0.26654854  0.10375794    -0.62400
N82         N  0.18590380  0.20831374  0.03544969    -0.06340
N83         N  0.16082464  0.19550943  0.04538818    -0.59130
N84         N  0.20887581  0.19226661  0.04647822    -0.07650
N85         N  0.19968974  0.16846532  0.06405898    -0.61960
N86         N  0.20835567  0.26997130  0.06561773    -0.06640
N87         N  0.20284177  0.29545798  0.08316554    -0.59150
Mn88       Mn  0.25250935  0.21510322  0.05040269     1.20190
Mn89       Mn  0.19078177  0.25788603  0.01886675     1.10090
Cl90       Cl  0.24400822  0.24749417  0.50079879    -0.87120
C91         C  0.22235551  0.29262203  0.10709151     0.95210
C92         C  0.16974853  0.17038956  0.06271676     0.95010
N93         N  0.45750444  0.30504155  0.29712357    -0.07280
N94         N  0.44834968  0.32895401  0.31523154    -0.59400
N95         N  0.45326745  0.22778908  0.31475349    -0.06960
N96         N  0.44627701  0.20230564  0.33105593    -0.61520
N97         N  0.47543136  0.24266019  0.32811761    -0.06550
N98         N  0.48361875  0.22801081  0.35403451    -0.59370
N99         N  0.43457257  0.29080355  0.28430931    -0.06230
N100        N  0.40953929  0.30490995  0.29372534    -0.61880
C101        C  0.41850661  0.32899687  0.31248246     0.94900
C102        C  0.46503771  0.20318327  0.35576292     0.94680
N103        N  0.46024012  0.18076639  0.22968580    -0.07460
N104        N  0.45664915  0.14971757  0.22583556    -0.59970
N105        N  0.42730614  0.25314122  0.21789451    -0.05580
N106        N  0.40442332  0.26889628  0.20578328    -0.61230
N107        N  0.44509516  0.24297118  0.19514961    -0.07490
N108        N  0.43531691  0.25200168  0.16756001    -0.60240
N109        N  0.44330348  0.19127465  0.25300772    -0.05220
N110        N  0.42867322  0.16791488  0.26594117    -0.61310
Mn111      Mn  0.43862049  0.24099167  0.26726721     1.18440
C112        C  0.43713021  0.14209328  0.24914183     0.96980
C113        C  0.41014636  0.26825333  0.17424381     0.97650
N114        N  0.04069223  0.25195030  0.30941044    -0.07510
N115        N  0.05053513  0.24230545  0.33677373    -0.63820
N116        N  0.04237238  0.30511029  0.25211320    -0.06310
N117        N  0.05727244  0.32914853  0.24058955    -0.64490
N118        N  0.02568688  0.31448355  0.27611064    -0.07020
N119        N  0.02966289  0.34508534  0.28191402    -0.64080
N120        N  0.05859242  0.24255791  0.28642261    -0.05910
N121        N  0.08153184  0.22662837  0.29814182    -0.64770
Mn122      Mn  0.00000179  0.27940321  0.30299249     1.10660
C123        C  0.07581831  0.22641716  0.32966392     0.98210
C124        C  0.04901479  0.35394892  0.25907507     0.98280
N125        N  0.00989727  0.25291569  0.17683103    -0.07020
N126        N  0.00075186  0.26765165  0.15137830    -0.62400
N127        N  0.05173937  0.20538055  0.21989749    -0.06340
N128        N  0.07687474  0.19176055  0.21005520    -0.59130
N129        N  0.02884967  0.19063520  0.20754063    -0.07650
N130        N  0.53820473  0.16692031  0.18922745    -0.61960
N131        N  0.03235563  0.26795858  0.18947733    -0.06640
N132        N  0.03901542  0.29323877  0.17264196    -0.59150
Mn133      Mn  0.48590586  0.21578250  0.20204001     1.20190
Mn134      Mn  0.04730861  0.25519539  0.23710316     1.10090
Cl135      Cl  0.49297653  0.24785032  0.25232898    -0.87120
C136        C  0.01918545  0.29253241  0.14880735     0.95210
C137        C  0.06811100  0.16748209  0.19142672     0.94650
N138        N  0.30507018  0.04187924  0.24473094    -0.07280
N139        N  0.32476433  0.06435723  0.24890970    -0.59400
N140        N  0.28953826  0.49048165  0.18796068    -0.06960
N141        N  0.31109418  0.48366947  0.16794682    -0.61520
N142        N  0.27987678  0.01985512  0.18359063    -0.06550
N143        N  0.29602187  0.03341306  0.16138349    -0.59370
N144        N  0.31739471  0.51366912  0.24850964    -0.06230
N145        N  0.34599785  0.51646504  0.25489682    -0.61880
C146        C  0.34999466  0.04826580  0.25563225     0.94900
C147        C  0.31556534  0.01061634  0.15194948     0.94680
N148        N  0.24462621  0.41925449  0.23752094    -0.07460
N149        N  0.23243289  0.39421614  0.22427477    -0.59970
N150        N  0.29614584  0.45145618  0.28321632    -0.05580
N151        N  0.32068039  0.44428724  0.29858363    -0.61230
N152        N  0.27255763  0.44274697  0.29935950    -0.07490
N153        N  0.28068182  0.42922432  0.32603275    -0.60240
N154        N  0.26770187  0.42851872  0.22101337    -0.05220
N155        N  0.27150422  0.41021435  0.19584785    -0.61310
Mn156      Mn  0.29293386  0.47049072  0.23519009     1.18440
C157        C  0.24945186  0.38882390  0.19842324     0.96980
C158        C  0.31071945  0.43082348  0.32531649     0.97650
N159        N  0.21631247  0.05192808  0.20214658    -0.07510
N160        N  0.20805869  0.06659444  0.17608935    -0.63820
N161        N  0.22122284  0.06570671  0.28005556    -0.06310
N162        N  0.21746193  0.08397486  0.30526421    -0.64490
N163        N  0.24503319  0.07415907  0.26432988    -0.07020
N164        N  0.25816609  0.09808132  0.27851267    -0.64080
N165        N  0.19275700  0.04275904  0.21805941    -0.05910
N166        N  0.16815525  0.05079510  0.20323377    -0.64770
Mn167      Mn  0.26121423  0.04749286  0.22326455     1.10660
C168        C  0.17798123  0.06523681  0.17698138     0.98210
C169        C  0.24069639  0.10408153  0.30390673     0.98280
N170        N  0.20822368  0.47419984  0.31753883    -0.07020
N171        N  0.19068674  0.46105887  0.33888271    -0.62400
N172        N  0.17171017  0.47985929  0.25266988    -0.06340
N173        N  0.14274845  0.47687698  0.24836733    -0.59130
N174        N  0.18411380  0.45170477  0.25683328    -0.07650
N175        N  0.16406321  0.42927487  0.25537190    -0.61960
N176        N  0.19962782  0.50392157  0.31307247    -0.06640
N177        N  0.17787319  0.51150457  0.33251755    -0.59150
Mn178      Mn  0.22781321  0.44644484  0.27822023     1.20190
Mn179      Mn  0.19612494  0.02349384  0.26581239     1.10090
Cl180      Cl  0.24449698  0.49696285  0.25057286    -0.87120
C181        C  0.17170362  0.48463702  0.34788191     0.95210
C182        C  0.13854276  0.44510845  0.24949516     0.95010
C183        C  0.41832350  0.09008470  0.22826151    -0.14500
C184        C  0.42207484  0.11143765  0.25342526     0.07650
C185        C  0.40617156  0.10667627  0.28163529    -0.14500
C186        C  0.38443401  0.08347817  0.28344514    -0.14500
C187        C  0.37873561  0.06412136  0.25738248     0.07650
C188        C  0.39662888  0.06650461  0.23024666    -0.14500
H189        H  0.43010615  0.09338739  0.20622669     0.11630
H190        H  0.40878068  0.12266174  0.30151781     0.11630
H191        H  0.37053338  0.08227650  0.30434320     0.11630
H192        H  0.39200086  0.05211882  0.20966227     0.11630
C193        C  0.07880719  0.39567024  0.28519574    -0.14500
C194        C  0.06480429  0.38428016  0.25805756     0.07650
C195        C  0.07163527  0.39773850  0.22874439    -0.14500
C196        C  0.09379924  0.42060667  0.22623344    -0.14500
C197        C  0.10964034  0.42978508  0.25295205     0.07650
C198        C  0.10137750  0.41804591  0.28258769    -0.14500
H199        H  0.07433930  0.38510457  0.30790292     0.11630
H200        H  0.06128943  0.38890363  0.20751371     0.11630
H201        H  0.10027746  0.42901206  0.20317514     0.11630
H202        H  0.11382593  0.42452041  0.30338286     0.11630
C203        C  0.22837632  0.31022885  0.16256290    -0.14500
C204        C  0.22805671  0.31753622  0.13044764     0.07650
C205        C  0.23550815  0.34816021  0.12060210    -0.14500
C206        C  0.24351145  0.37121492  0.14273694    -0.14500
C207        C  0.24310325  0.36412472  0.17495271     0.07650
C208        C  0.23521003  0.33362294  0.18476724    -0.14500
H209        H  0.22304338  0.28654717  0.17041440     0.11630
H210        H  0.23582809  0.35394658  0.09578485     0.11630
H211        H  0.24935360  0.39473366  0.13480971     0.11630
H212        H  0.23479078  0.32781193  0.20956958     0.11630
C213        C  0.22496206  0.13960406  0.34851020    -0.14500
C214        C  0.24729274  0.12841939  0.32789191     0.07650
C215        C  0.27609515  0.14080247  0.33020360    -0.14500
C216        C  0.28244736  0.16403304  0.35279896    -0.14500
C217        C  0.25986926  0.17579946  0.37266916     0.07650
C218        C  0.23111808  0.16347682  0.37043560    -0.14500
H219        H  0.20263759  0.13039045  0.34722902     0.11630
H220        H  0.29374111  0.13239255  0.31466197     0.11630
H221        H  0.30471032  0.17338683  0.35422740     0.11630
H222        H  0.21347275  0.17223414  0.38581720     0.11630
C223        C  0.10654036  0.21639744  0.41079941    -0.14500
C224        C  0.13700948  0.21729632  0.40425610     0.07650
C225        C  0.14701882  0.21327828  0.37293716    -0.14500
C226        C  0.12682387  0.21269019  0.34815604    -0.14500
C227        C  0.09641475  0.21613611  0.35449279     0.07650
C228        C  0.08633256  0.21581037  0.38600853    -0.14500
H229        H  0.09831377  0.21921194  0.43470812     0.11630
H230        H  0.17054958  0.21333753  0.36737965     0.11630
H231        H  0.13512458  0.21256977  0.32415203     0.11630
H232        H  0.06283624  0.21786303  0.39150036     0.11630
C233        C  0.38056311  0.27795981  0.09251828    -0.14500
C234        C  0.35000579  0.27739008  0.09852087     0.07650
C235        C  0.33954911  0.28151442  0.12968287    -0.14500
C236        C  0.35937620  0.28204968  0.15483315    -0.14500
C237        C  0.38985712  0.27836652  0.14902847     0.07650
C238        C  0.40037598  0.27836349  0.11765568    -0.14500
H239        H  0.38913716  0.27495045  0.06876465     0.11630
H240        H  0.31592877  0.28164939  0.13481465     0.11630
H241        H  0.35072711  0.28234270  0.17870307     0.11630
H242        H  0.42388395  0.27586431  0.11251797     0.11630
C243        C  0.33889250  0.06326764  0.52101516    -0.14500
C244        C  0.35712509  0.06010291  0.49414004     0.07650
C245        C  0.35103718  0.07840079  0.46761153    -0.14500
C246        C  0.32878569  0.10167272  0.46883118    -0.14500
C247        C  0.31283690  0.10761513  0.49693122     0.07650
C248        C  0.31676394  0.08702271  0.52245508    -0.14500
H249        H  0.34371395  0.04958554  0.54188942     0.11630
H250        H  0.36512843  0.07650407  0.44685946     0.11630
H251        H  0.32598184  0.11698728  0.44865612     0.11630
H252        H  0.30485975  0.09116296  0.04438862     0.11630
C253        C  0.14675000  0.42941961  0.47614928    -0.14500
C254        C  0.13213150  0.43612543  0.00483001     0.07650
C255        C  0.14144994  0.42088960  0.03223153    -0.14500
C256        C  0.16330898  0.39714657  0.03058542    -0.14500
C257        C  0.17584493  0.38804255  0.50142534     0.07650
C258        C  0.16869275  0.40554020  0.47445457    -0.14500
H259        H  0.13923562  0.44047849  0.45461745     0.11630
H260        H  0.13001402  0.42538291  0.05438966     0.11630
H261        H  0.16855583  0.38401876  0.05171089     0.11630
H262        H  0.17779731  0.39872435  0.45166660     0.11630
C263        C  0.08896959  0.49578908  0.35538237    -0.14500
C264        C  0.08120362  0.47212968  0.37656494     0.07650
C265        C  0.10291358  0.44994215  0.38626377    -0.14500
C266        C  0.13265572  0.45320545  0.37670580    -0.14500
C267        C  0.14075632  0.47893664  0.35784561     0.07650
C268        C  0.11834619  0.49926305  0.34623478    -0.14500
H269        H  0.07266688  0.01332707  0.34801506     0.11630
H270        H  0.09741811  0.43190940  0.40332463     0.11630
H271        H  0.14938647  0.43676607  0.38525773     0.11630
H272        H  0.12349038  0.01865881  0.33060503     0.11630
C273        C  0.38185745  0.04169567  0.10710239    -0.14500
C274        C  0.40510792  0.02650927  0.12344977     0.07650
C275        C  0.39887900  0.00963834  0.15071958    -0.14500
C276        C  0.36960777  0.00579584  0.16029117    -0.14500
C277        C  0.34603812  0.01833346  0.14241680     0.07650
C278        C  0.35229095  0.03774690  0.11668977    -0.14500
H279        H  0.38637825  0.05412282  0.08536607     0.11630
H280        H  0.41646644  0.99740547  0.16321353     0.11630
H281        H  0.36538858  0.99179539  0.18110375     0.11630
H282        H  0.33443697  0.04814809  0.10308320     0.11630
C283        C  0.03141510  0.36344136  0.09617755    -0.14500
C284        C  0.50251756  0.36888756  0.08500521     0.07650
C285        C  0.47940444  0.34931408  0.09487493    -0.14500
C286        C  0.48517694  0.32412894  0.11514370    -0.14500
C287        C  0.01398308  0.31869459  0.12662647     0.07650
C288        C  0.03702350  0.33881169  0.11738306    -0.14500
H289        H  0.04949792  0.37845156  0.08876317     0.11630
H290        H  0.45701815  0.35307481  0.08633329     0.11630
H291        H  0.46696772  0.30921619  0.12230062     0.11630
H292        H  0.05934287  0.33514825  0.12612044     0.11630
C293        C  0.48737188  0.12316927  0.38737219    -0.14500
C294        C  0.48444000  0.12838128  0.41991488     0.07650
C295        C  0.47385428  0.15791557  0.43112333    -0.14500
C296        C  0.46709671  0.18226140  0.41012336    -0.14500
C297        C  0.46966324  0.17692398  0.37764998     0.07650
C298        C  0.47955693  0.14720322  0.36630408    -0.14500
H299        H  0.49530387  0.10046182  0.37831128     0.11630
H300        H  0.47148045  0.16237279  0.45618028     0.11630
H301        H  0.45988852  0.20524153  0.41917066     0.11630
H302        H  0.48209263  0.14297640  0.34121980     0.11630
C303        C  0.14063511  0.09735752  0.14088574    -0.14430
C304        C  0.15839788  0.08190205  0.15583334    -0.15990
C305        C  0.10263624  0.13722586  0.14931252    -0.14430
C306        C  0.08770198  0.15078822  0.16940031    -0.15990
C307        C  0.15036674  0.15331444  0.08390039    -0.14430
C308        C  0.13551808  0.13888061  0.10288817    -0.15990
C309        C  0.09773407  0.09956114  0.10687214    -0.14430
C310        C  0.08022599  0.08594810  0.09017148    -0.15990
C311        C  0.39049640  0.39706007  0.39685925    -0.14430
C312        C  0.40841439  0.41031322  0.41332877    -0.15990
C313        C  0.35198270  0.35844317  0.40094627    -0.14430
C314        C  0.33705225  0.34363032  0.41952869    -0.15990
C315        C  0.33011335  0.41523095  0.34734391    -0.14430
C316        C  0.34752329  0.40007932  0.36296933    -0.15990
C317        C  0.39907022  0.34587126  0.33434821    -0.14430
C318        C  0.38455866  0.35962829  0.35455755    -0.15990
C319        C  0.36864140  0.37871295  0.87886852    -0.03640
C320        C  0.11911303  0.11840627  0.62504661    -0.03640
N321        N  0.43197006  0.04134609  0.00712073    -0.07280
N322        N  0.41117867  0.06266433  0.00110268    -0.59400
N323        N  0.45264707  0.49668971  0.56713667    -0.06960
N324        N  0.43465754  0.49117381  0.59093878    -0.61520
N325        N  0.46172289  0.02633801  0.56827189    -0.06550
N326        N  0.44900276  0.04142859  0.59230143    -0.59370
N327        N  0.42086603  0.01256426  0.00655812    -0.06230
N328        N  0.39204304  0.01385091  0.00063468    -0.61880
C329        C  0.38658163  0.04523681  0.99671553     0.94900
C330        C  0.43262101  0.01905132  0.60656487     0.94680
N331        N  0.49958215  0.42269990  0.52213291    -0.07460
N332        N  0.51356916  0.39929258  0.53651352    -0.59970
N333        N  0.44345202  0.44766268  0.97634945    -0.05580
N334        N  0.41865605  0.43989579  0.96196992    -0.61230
N335        N  0.46680617  0.43800584  0.95988766    -0.07490
N336        N  0.45827993  0.42332692  0.93384861    -0.60240
N337        N  0.47576045  0.43161687  0.53812726    -0.05220
N338        N  0.47268238  0.41403308  0.56354111    -0.61310
Mn339      Mn  0.44781440  0.47153865  0.52219505     1.18440
C340        C  0.49654240  0.39415891  0.56223347     0.96980
C341        C  0.42821823  0.42495547  0.93549742     0.97650
N342        N  0.52188566  0.05792017  0.54379067    -0.07510
N343        N  0.53045379  0.07252823  0.56983765    -0.63820
N344        N  0.01213856  0.06454228  0.96510628    -0.06310
N345        N  0.01435488  0.08196312  0.93941874    -0.64490
N346        N  0.48935144  0.07421233  0.98230961    -0.07020
N347        N  0.47576308  0.09852113  0.96910201    -0.64080
N348        N  0.04517282  0.04855735  0.52705245    -0.05910
N349        N  0.07000817  0.05642656  0.54134439    -0.64770
Mn350      Mn  0.47644605  0.05056388  0.52569950     1.10660
C351        C  0.06049879  0.07114128  0.56799698     0.98210
C352        C  0.49149471  0.10307365  0.94239903     0.98280
N353        N  0.02690873  0.46962803  0.93512644    -0.07020
N354        N  0.03939528  0.45497389  0.91064846    -0.62400
N355        N  0.06785334  0.48375993  0.49639553    -0.06340
N356        N  0.09689771  0.48244436  0.50107057    -0.59130
N357        N  0.05681681  0.45494784  0.49609490    -0.07650
N358        N  0.07787457  0.43360888  0.50091880    -0.61960
N359        N  0.03528303  0.49951861  0.93615542    -0.06640
N360        N  0.05237456  0.00574489  0.91184121    -0.59150
Mn361      Mn  0.01233342  0.44559862  0.97803943     1.20190
Mn362      Mn  0.04047217  0.02469656  0.98098832     1.10090
Cl363      Cl  0.49428396  0.49809432  0.00173386    -0.87120
C364        C  0.05474658  0.47800438  0.89601192     0.95210
C365        C  0.10257251  0.45101835  0.50447715     0.95010
N366        N  0.27880266  0.30265901  0.95500777    -0.07280
N367        N  0.28775071  0.32688828  0.93789021    -0.59400
N368        N  0.28048955  0.22550130  0.93565991    -0.06960
N369        N  0.28655452  0.20020896  0.91796122    -0.61520
N370        N  0.25738742  0.24102337  0.92449283    -0.06550
N371        N  0.24708040  0.22657763  0.89928809    -0.59370
N372        N  0.30188538  0.28720978  0.96653105    -0.06230
N373        N  0.32684719  0.30075855  0.95732178    -0.61880
C374        C  0.31767147  0.32578059  0.93999258     0.94900
C375        C  0.26564700  0.20148859  0.89522819     0.94680
N376        N  0.27606476  0.17885220  0.52105751    -0.07460
N377        N  0.27942645  0.14778239  0.52500062    -0.59970
N378        N  0.31100952  0.24943423  0.53172045    -0.05580
N379        N  0.33406611  0.26535731  0.54262989    -0.61230
N380        N  0.29407710  0.24036289  0.55531382    -0.07490
N381        N  0.30464940  0.25029128  0.58231526    -0.60240
N382        N  0.29206273  0.18813846  0.99682795    -0.05220
N383        N  0.30581431  0.16383520  0.98341567    -0.61310
Mn384      Mn  0.29745382  0.23763014  0.98280170     1.18440
C385        C  0.29776101  0.13876006  0.50086019     0.96980
C386        C  0.32938048  0.26593724  0.57433288     0.97650
N387        N  0.19366554  0.25421037  0.94648351    -0.07510
N388        N  0.18281616  0.24405897  0.91968843    -0.63820
N389        N  0.19620558  0.30743020  0.00430163    -0.06310
N390        N  0.18252947  0.33220931  0.51704080    -0.64490
N391        N  0.21203590  0.31598508  0.97969352    -0.07020
N392        N  0.20873863  0.34685948  0.97476502    -0.64080
N393        N  0.17676117  0.24569415  0.97029204    -0.05910
N394        N  0.15349240  0.22986663  0.95979270    -0.64770
Mn395      Mn  0.23532437  0.27938600  0.95108437     1.10660
C396        C  0.15796597  0.22880668  0.92807707     0.98210
C397        C  0.19059975  0.35668069  0.99869216     0.98280
N398        N  0.23031064  0.25319558  0.57758967    -0.07020
N399        N  0.23984653  0.26654853  0.60375794    -0.62400
N400        N  0.18590379  0.20831373  0.53544970    -0.06340
N401        N  0.16082463  0.19550942  0.54538818    -0.59130
N402        N  0.20887581  0.19226660  0.54647822    -0.07650
N403        N  0.19968974  0.16846531  0.56405898    -0.61960
N404        N  0.20835567  0.26997129  0.56561773    -0.06640
N405        N  0.20284177  0.29545797  0.58316554    -0.59150
Mn406      Mn  0.25250935  0.21510321  0.55040269     1.20190
Mn407      Mn  0.19078177  0.25788602  0.51886675     1.10090
Cl408      Cl  0.24400822  0.24749417  0.00079879    -0.87120
C409        C  0.22235551  0.29262202  0.60709152     0.95210
C410        C  0.16974853  0.17038955  0.56271677     0.95010
N411        N  0.45750444  0.30504156  0.79712357    -0.07280
N412        N  0.44834969  0.32895402  0.81523154    -0.59400
N413        N  0.45326745  0.22778910  0.81475350    -0.06960
N414        N  0.44627701  0.20230566  0.83105593    -0.61520
N415        N  0.47543136  0.24266021  0.82811761    -0.06550
N416        N  0.48361876  0.22801082  0.85403451    -0.59370
N417        N  0.43457258  0.29080357  0.78430931    -0.06230
N418        N  0.40953930  0.30490997  0.79372534    -0.61880
C419        C  0.41850661  0.32899689  0.81248246     0.94900
C420        C  0.46503771  0.20318329  0.85576292     0.94680
N421        N  0.46024011  0.18076640  0.72968581    -0.07460
N422        N  0.45664915  0.14971758  0.72583557    -0.59970
N423        N  0.42730614  0.25314123  0.71789451    -0.05580
N424        N  0.40442332  0.26889629  0.70578329    -0.61230
N425        N  0.44509515  0.24297119  0.69514961    -0.07490
N426        N  0.43531691  0.25200168  0.66756001    -0.60240
N427        N  0.44330348  0.19127467  0.75300772    -0.05220
N428        N  0.42867321  0.16791489  0.76594118    -0.61310
Mn429      Mn  0.43862049  0.24099168  0.76726721     1.18440
C430        C  0.43713020  0.14209329  0.74914185     0.96980
C431        C  0.41014636  0.26825333  0.67424381     0.97650
N432        N  0.04069224  0.25195030  0.80941044    -0.07510
N433        N  0.05053513  0.24230546  0.83677373    -0.63820
N434        N  0.04237238  0.30511029  0.75211320    -0.06310
N435        N  0.05727244  0.32914853  0.74058954    -0.64490
N436        N  0.02568689  0.31448356  0.77611064    -0.07020
N437        N  0.02966289  0.34508535  0.78191401    -0.64080
N438        N  0.05859242  0.24255792  0.78642261    -0.05910
N439        N  0.08153184  0.22662837  0.79814182    -0.64770
Mn440      Mn  0.00000180  0.27940322  0.80299249     1.10660
C441        C  0.07581831  0.22641716  0.82966392     0.98210
C442        C  0.04901479  0.35394892  0.75907505     0.98280
N443        N  0.00989727  0.25291569  0.67683103    -0.07020
N444        N  0.00075186  0.26765165  0.65137830    -0.62400
N445        N  0.05173936  0.20538055  0.71989749    -0.06340
N446        N  0.07687473  0.19176055  0.71005520    -0.59130
N447        N  0.02884967  0.19063520  0.70754063    -0.07650
N448        N  0.53820473  0.16692031  0.68922745    -0.61960
N449        N  0.03235563  0.26795858  0.68947733    -0.06640
N450        N  0.03901542  0.29323876  0.67264195    -0.59150
Mn451      Mn  0.48590586  0.21578250  0.70204001     1.20190
Mn452      Mn  0.04730861  0.25519539  0.73710316     1.10090
Cl453      Cl  0.49297653  0.24785033  0.75232898    -0.87120
C454        C  0.01918545  0.29253241  0.64880734     0.95210
C455        C  0.06811099  0.16748209  0.69142672     0.94650
N456        N  0.30507018  0.04187924  0.74473093    -0.07280
N457        N  0.32476433  0.06435723  0.74890970    -0.59400
N458        N  0.28953826  0.49048165  0.68796068    -0.06960
N459        N  0.31109417  0.48366947  0.66794682    -0.61520
N460        N  0.27987677  0.01985513  0.68359062    -0.06550
N461        N  0.29602184  0.03341306  0.66138348    -0.59370
N462        N  0.31739471  0.51366911  0.74850964    -0.06230
N463        N  0.34599785  0.51646504  0.75489682    -0.61880
C464        C  0.34999466  0.04826581  0.75563226     0.94900
C465        C  0.31556532  0.01061634  0.65194946     0.94680
N466        N  0.24462620  0.41925449  0.73752094    -0.07460
N467        N  0.23243289  0.39421614  0.72427477    -0.59970
N468        N  0.29614584  0.45145618  0.78321631    -0.05580
N469        N  0.32068038  0.44428724  0.79858363    -0.61230
N470        N  0.27255763  0.44274697  0.79935950    -0.07490
N471        N  0.28068182  0.42922432  0.82603274    -0.60240
N472        N  0.26770187  0.42851872  0.72101336    -0.05220
N473        N  0.27150422  0.41021435  0.69584784    -0.61310
Mn474      Mn  0.29293385  0.47049072  0.73519008     1.18440
C475        C  0.24945185  0.38882390  0.69842324     0.96980
C476        C  0.31071945  0.43082348  0.82531648     0.97650
N477        N  0.21631247  0.05192808  0.70214658    -0.07510
N478        N  0.20805868  0.06659443  0.67608936    -0.63820
N479        N  0.22122285  0.06570671  0.78005556    -0.06310
N480        N  0.21746194  0.08397486  0.80526422    -0.64490
N481        N  0.24503319  0.07415907  0.76432988    -0.07020
N482        N  0.25816609  0.09808132  0.77851267    -0.64080
N483        N  0.19275699  0.04275904  0.71805942    -0.05910
N484        N  0.16815525  0.05079510  0.70323378    -0.64770
Mn485      Mn  0.26121423  0.04749286  0.72326455     1.10660
C486        C  0.17798122  0.06523680  0.67698139     0.98210
C487        C  0.24069640  0.10408153  0.80390673     0.98280
N488        N  0.20822368  0.47419983  0.81753883    -0.07020
N489        N  0.19068674  0.46105886  0.83888271    -0.62400
N490        N  0.17171016  0.47985930  0.75266988    -0.06340
N491        N  0.14274845  0.47687699  0.74836732    -0.59130
N492        N  0.18411379  0.45170477  0.75683328    -0.07650
N493        N  0.16406320  0.42927488  0.75537189    -0.61960
N494        N  0.19962782  0.50392157  0.81307247    -0.06640
N495        N  0.17787319  0.51150457  0.83251756    -0.59150
Mn496      Mn  0.22781320  0.44644484  0.77822023     1.20190
Mn497      Mn  0.19612494  0.02349384  0.76581240     1.10090
Cl498      Cl  0.24449698  0.49696285  0.75057286    -0.87120
C499        C  0.17170362  0.48463701  0.84788191     0.95210
C500        C  0.13854276  0.44510846  0.74949515     0.95010
C501        C  0.41832351  0.09008470  0.72826155    -0.14500
C502        C  0.42207483  0.11143766  0.75342528     0.07650
C503        C  0.40617153  0.10667630  0.78163531    -0.14500
C504        C  0.38443398  0.08347820  0.78344515    -0.14500
C505        C  0.37873561  0.06412137  0.75738250     0.07650
C506        C  0.39662890  0.06650461  0.73024670    -0.14500
H507        H  0.43010618  0.09338737  0.70622674     0.11630
H508        H  0.40878063  0.12266179  0.80151781     0.11630
H509        H  0.37053333  0.08227655  0.80434320     0.11630
H510        H  0.39200089  0.05211880  0.70966231     0.11630
C511        C  0.07880716  0.39567028  0.78519571    -0.14500
C512        C  0.06480429  0.38428017  0.75805753     0.07650
C513        C  0.07163530  0.39773847  0.72874436    -0.14500
C514        C  0.09379927  0.42060665  0.72623340    -0.14500
C515        C  0.10964033  0.42978509  0.75295203     0.07650
C516        C  0.10137746  0.41804596  0.78258767    -0.14500
H517        H  0.07433925  0.38510464  0.80790290     0.11630
H518        H  0.06128949  0.38890358  0.70751367     0.11630
H519        H  0.10027751  0.42901201  0.70317511     0.11630
H520        H  0.11382587  0.42452049  0.80338285     0.11630
C521        C  0.22837641  0.31022882  0.66256290    -0.14500
C522        C  0.22805671  0.31753621  0.63044764     0.07650
C523        C  0.23550806  0.34816023  0.62060211    -0.14500
C524        C  0.24351136  0.37121495  0.64273695    -0.14500
C525        C  0.24310325  0.36412472  0.67495271     0.07650
C526        C  0.23521012  0.33362291  0.68476723    -0.14500
H527        H  0.22304354  0.28654712  0.67041440     0.11630
H528        H  0.23582793  0.35394662  0.59578486     0.11630
H529        H  0.24935344  0.39473370  0.63480971     0.11630
H530        H  0.23479093  0.32781189  0.70956958     0.11630
C531        C  0.22496207  0.13960405  0.84851021    -0.14500
C532        C  0.24729274  0.12841939  0.82789191     0.07650
C533        C  0.27609515  0.14080248  0.83020359    -0.14500
C534        C  0.28244736  0.16403305  0.85279895    -0.14500
C535        C  0.25986927  0.17579946  0.87266916     0.07650
C536        C  0.23111809  0.16347681  0.87043561    -0.14500
H537        H  0.20263760  0.13039043  0.84722904     0.11630
H538        H  0.29374111  0.13239256  0.81466196     0.11630
H539        H  0.30471032  0.17338685  0.85422739     0.11630
H540        H  0.21347276  0.17223413  0.88581722     0.11630
C541        C  0.10654037  0.21639745  0.91079940    -0.14500
C542        C  0.13700948  0.21729632  0.90425610     0.07650
C543        C  0.14701882  0.21327829  0.87293716    -0.14500
C544        C  0.12682387  0.21269019  0.84815604    -0.14500
C545        C  0.09641475  0.21613612  0.85449278     0.07650
C546        C  0.08633256  0.21581038  0.88600853    -0.14500
H547        H  0.09831378  0.21921195  0.93470812     0.11630
H548        H  0.17054958  0.21333753  0.86737965     0.11630
H549        H  0.13512458  0.21256977  0.82415203     0.11630
H550        H  0.06283625  0.21786304  0.89150036     0.11630
C551        C  0.38056311  0.27795981  0.59251828    -0.14500
C552        C  0.35000578  0.27739007  0.59852087     0.07650
C553        C  0.33954911  0.28151441  0.62968287    -0.14500
C554        C  0.35937619  0.28204967  0.65483315    -0.14500
C555        C  0.38985712  0.27836653  0.64902847     0.07650
C556        C  0.40037598  0.27836349  0.61765568    -0.14500
H557        H  0.38913716  0.27495045  0.56876465     0.11630
H558        H  0.31592876  0.28164938  0.63481466     0.11630
H559        H  0.35072711  0.28234270  0.67870307     0.11630
H560        H  0.42388394  0.27586432  0.61251797     0.11630
C561        C  0.33889252  0.06326766  0.02101520    -0.14500
C562        C  0.35712509  0.06010292  0.99414007     0.07650
C563        C  0.35103716  0.07840077  0.96761155    -0.14500
C564        C  0.32878567  0.10167270  0.96883119    -0.14500
C565        C  0.31283690  0.10761513  0.99693124     0.07650
C566        C  0.31676395  0.08702273  0.02245511    -0.14500
H567        H  0.34371399  0.04958559  0.04188946     0.11630
H568        H  0.36512840  0.07650404  0.94685946     0.11630
H569        H  0.32598181  0.11698725  0.94865613     0.11630
H570        H  0.30485972  0.09116292  0.54438858     0.11630
C571        C  0.14675000  0.42941961  0.97614928    -0.14500
C572        C  0.13213149  0.43612542  0.50483002     0.07650
C573        C  0.14144993  0.42088959  0.53223154    -0.14500
C574        C  0.16330896  0.39714656  0.53058542    -0.14500
C575        C  0.17584494  0.38804256  0.00142533     0.07650
C576        C  0.16869275  0.40554020  0.97445456    -0.14500
H577        H  0.13923562  0.44047848  0.95461744     0.11630
H578        H  0.13001400  0.42538290  0.55438966     0.11630
H579        H  0.16855582  0.38401875  0.55171090     0.11630
H580        H  0.17779730  0.39872435  0.95166659     0.11630
C581        C  0.08896959  0.49578908  0.85538237    -0.14500
C582        C  0.08120362  0.47212968  0.87656494     0.07650
C583        C  0.10291358  0.44994215  0.88626378    -0.14500
C584        C  0.13265573  0.45320545  0.87670581    -0.14500
C585        C  0.14075632  0.47893664  0.85784562     0.07650
C586        C  0.11834619  0.49926305  0.84623478    -0.14500
H587        H  0.07266689  0.01332707  0.84801506     0.11630
H588        H  0.09741812  0.43190940  0.90332464     0.11630
H589        H  0.14938647  0.43676607  0.88525773     0.11630
H590        H  0.12349040  0.01865881  0.83060503     0.11630
C591        C  0.38185740  0.04169561  0.60710230    -0.14500
C592        C  0.40510788  0.02650927  0.62344972     0.07650
C593        C  0.39887897  0.00963843  0.65071959    -0.14500
C594        C  0.36960775  0.00579593  0.66029119    -0.14500
C595        C  0.34603809  0.01833348  0.64241677     0.07650
C596        C  0.35229091  0.03774684  0.61668968    -0.14500
H597        H  0.38637820  0.05412269  0.58536593     0.11630
H598        H  0.41646642  0.99740562  0.66321359     0.11630
H599        H  0.36538856  0.99179555  0.68110381     0.11630
H600        H  0.33443692  0.04814796  0.60308307     0.11630
C601        C  0.03141510  0.36344134  0.59617753    -0.14500
C602        C  0.50251756  0.36888755  0.58500521     0.07650
C603        C  0.47940443  0.34931409  0.59487494    -0.14500
C604        C  0.48517693  0.32412895  0.61514372    -0.14500
C605        C  0.01398308  0.31869459  0.62662647     0.07650
C606        C  0.03702350  0.33881168  0.61738304    -0.14500
H607        H  0.04949793  0.37845153  0.58876314     0.11630
H608        H  0.45701814  0.35307483  0.58633331     0.11630
H609        H  0.46696771  0.30921621  0.62230065     0.11630
H610        H  0.05934288  0.33514822  0.62612040     0.11630
C611        C  0.48737190  0.12316930  0.88737219    -0.14500
C612        C  0.48444000  0.12838129  0.91991487     0.07650
C613        C  0.47385426  0.15791557  0.93112332    -0.14500
C614        C  0.46709668  0.18226140  0.91012336    -0.14500
C615        C  0.46966325  0.17692399  0.87764998     0.07650
C616        C  0.47955696  0.14720324  0.86630408    -0.14500
H617        H  0.49530391  0.10046185  0.87831127     0.11630
H618        H  0.47148041  0.16237279  0.95618028     0.11630
H619        H  0.45988848  0.20524152  0.91917065     0.11630
H620        H  0.48209267  0.14297643  0.84121979     0.11630
C621        C  0.14063510  0.09735751  0.64088574    -0.14430
C622        C  0.15839787  0.08190204  0.65583335    -0.15990
C623        C  0.10263623  0.13722585  0.64931252    -0.14430
C624        C  0.08770197  0.15078822  0.66940031    -0.15990
C625        C  0.15036673  0.15331443  0.58390039    -0.14430
C626        C  0.13551808  0.13888060  0.60288818    -0.15990
C627        C  0.09773406  0.09956113  0.60687214    -0.14430
C628        C  0.08022598  0.08594809  0.59017148    -0.15990
C629        C  0.39049640  0.39706009  0.89685925    -0.14430
C630        C  0.40841439  0.41031324  0.91332878    -0.15990
C631        C  0.35198270  0.35844318  0.90094627    -0.14430
C632        C  0.33705225  0.34363032  0.91952869    -0.15990
C633        C  0.33011335  0.41523095  0.84734391    -0.14430
C634        C  0.34752330  0.40007933  0.86296933    -0.15990
C635        C  0.39907023  0.34587128  0.83434821    -0.14430
C636        C  0.38455867  0.35962831  0.85455755    -0.15990
C637        C  0.36864139  0.87871294  0.37886852    -0.03640
C638        C  0.11911303  0.61840628  0.12504661    -0.03640
N639        N  0.43197005  0.54134607  0.50712073    -0.07280
N640        N  0.41117867  0.56266431  0.50110267    -0.59400
N641        N  0.45264709  0.99668973  0.06713668    -0.06960
N642        N  0.43465757  0.99117382  0.09093880    -0.61520
N643        N  0.46172289  0.52633801  0.06827189    -0.06550
N644        N  0.44900276  0.54142859  0.09230143    -0.59370
N645        N  0.42086602  0.51256425  0.50655811    -0.06230
N646        N  0.39204303  0.51385090  0.50063466    -0.61880
C647        C  0.38658162  0.54523680  0.49671551     0.94900
C648        C  0.43262101  0.51905133  0.10656487     0.94680
N649        N  0.49958216  0.92269991  0.02213293    -0.07460
N650        N  0.51356917  0.89929260  0.03651354    -0.59970
N651        N  0.44345202  0.94766267  0.47634945    -0.05580
N652        N  0.41865605  0.93989579  0.46196993    -0.61230
N653        N  0.46680616  0.93800583  0.45988766    -0.07490
N654        N  0.45827992  0.92332691  0.43384861    -0.60240
N655        N  0.47576046  0.93161688  0.03812727    -0.05220
N656        N  0.47268239  0.91403309  0.06354113    -0.61310
Mn657      Mn  0.44781441  0.97153867  0.02219506     1.18440
C658        C  0.49654241  0.89415893  0.06223349     0.96980
C659        C  0.42821822  0.92495546  0.43549742     0.97650
N660        N  0.52188566  0.55792017  0.04379067    -0.07510
N661        N  0.53045379  0.57252824  0.06983765    -0.63820
N662        N  0.01213856  0.56454227  0.46510629    -0.06310
N663        N  0.01435488  0.58196311  0.43941874    -0.64490
N664        N  0.48935143  0.57421232  0.48230961    -0.07020
N665        N  0.47576307  0.59852113  0.46910201    -0.64080
N666        N  0.04517282  0.54855736  0.02705245    -0.05910
N667        N  0.07000818  0.55642657  0.04134439    -0.64770
Mn668      Mn  0.47644605  0.55056389  0.02569950     1.10660
C669        C  0.06049879  0.57114129  0.06799698     0.98210
C670        C  0.49149471  0.60307364  0.44239904     0.98280
N671        N  0.02690872  0.96962802  0.43512644    -0.07020
N672        N  0.03939527  0.95497388  0.41064845    -0.62400
N673        N  0.06785334  0.98375994  0.99639553    -0.06340
N674        N  0.09689772  0.98244437  0.00107057    -0.59130
N675        N  0.05681682  0.95494785  0.99609491    -0.07650
N676        N  0.07787458  0.93360889  0.00091881    -0.61960
N677        N  0.03528303  0.99951861  0.43615542    -0.06640
N678        N  0.05237455  0.50574489  0.41184121    -0.59150
Mn679      Mn  0.01233341  0.94559862  0.47803942     1.20190
Mn680      Mn  0.04047217  0.52469655  0.48098832     1.10090
Cl681      Cl  0.49428395  0.99809431  0.50173386    -0.87120
C682        C  0.05474658  0.97800438  0.39601192     0.95210
C683        C  0.10257252  0.95101836  0.00447716     0.95010
N684        N  0.27880265  0.80265901  0.45500778    -0.07280
N685        N  0.28775070  0.82688828  0.43789021    -0.59400
N686        N  0.28048954  0.72550130  0.43565991    -0.06960
N687        N  0.28655451  0.70020896  0.41796123    -0.61520
N688        N  0.25738742  0.74102337  0.42449284    -0.06550
N689        N  0.24708039  0.72657763  0.39928810    -0.59370
N690        N  0.30188537  0.78720978  0.46653106    -0.06230
N691        N  0.32684719  0.80075855  0.45732179    -0.61880
C692        C  0.31767146  0.82578059  0.43999259     0.94900
C693        C  0.26564700  0.70148858  0.39522819     0.94680
N694        N  0.27606477  0.67885221  0.02105751    -0.07460
N695        N  0.27942646  0.64778240  0.02500061    -0.59970
N696        N  0.31100953  0.74943424  0.03172045    -0.05580
N697        N  0.33406611  0.76535732  0.04262989    -0.61230
N698        N  0.29407710  0.74036289  0.05531382    -0.07490
N699        N  0.30464940  0.75029129  0.08231526    -0.60240
N700        N  0.29206273  0.68813846  0.49682794    -0.05220
N701        N  0.30581431  0.66383520  0.48341566    -0.61310
Mn702      Mn  0.29745382  0.73763014  0.48280171     1.18440
C703        C  0.29776101  0.63876007  0.00086019     0.96980
C704        C  0.32938048  0.76593725  0.07433288     0.97650
N705        N  0.19366553  0.75421037  0.44648351    -0.07510
N706        N  0.18281616  0.74405896  0.41968844    -0.63820
N707        N  0.19620558  0.80743019  0.50430164    -0.06310
N708        N  0.18252947  0.83220932  0.01704080    -0.64490
N709        N  0.21203589  0.81598508  0.47969354    -0.07020
N710        N  0.20873863  0.84685947  0.47476504    -0.64080
N711        N  0.17676117  0.74569415  0.47029205    -0.05910
N712        N  0.15349239  0.72986662  0.45979270    -0.64770
Mn713      Mn  0.23532436  0.77938600  0.45108438     1.10660
C714        C  0.15796596  0.72880667  0.42807708     0.98210
C715        C  0.19059975  0.85668068  0.49869217     0.98280
N716        N  0.23031064  0.75319558  0.07758967    -0.07020
N717        N  0.23984653  0.76654853  0.10375794    -0.62400
N718        N  0.18590380  0.70831374  0.03544969    -0.06340
N719        N  0.16082464  0.69550943  0.04538818    -0.59130
N720        N  0.20887581  0.69226661  0.04647822    -0.07650
N721        N  0.19968974  0.66846532  0.06405898    -0.61960
N722        N  0.20835567  0.76997130  0.06561773    -0.06640
N723        N  0.20284176  0.79545797  0.08316554    -0.59150
Mn724      Mn  0.25250935  0.71510322  0.05040269     1.20190
Mn725      Mn  0.19078177  0.75788603  0.01886675     1.10090
Cl726      Cl  0.24400822  0.74749417  0.50079879    -0.87120
C727        C  0.22235551  0.79262202  0.10709152     0.95210
C728        C  0.16974853  0.67038956  0.06271676     0.95010
N729        N  0.45750444  0.80504156  0.29712357    -0.07280
N730        N  0.44834969  0.82895402  0.31523154    -0.59400
N731        N  0.45326744  0.72778910  0.31475350    -0.06960
N732        N  0.44627701  0.70230566  0.33105594    -0.61520
N733        N  0.47543136  0.74266020  0.32811762    -0.06550
N734        N  0.48361875  0.72801082  0.35403451    -0.59370
N735        N  0.43457257  0.79080357  0.28430932    -0.06230
N736        N  0.40953930  0.80490996  0.29372535    -0.61880
C737        C  0.41850661  0.82899689  0.31248247     0.94900
C738        C  0.46503771  0.70318328  0.35576293     0.94680
N739        N  0.46024011  0.68076640  0.22968581    -0.07460
N740        N  0.45664915  0.64971758  0.22583557    -0.59970
N741        N  0.42730614  0.75314123  0.21789451    -0.05580
N742        N  0.40442332  0.76889629  0.20578329    -0.61230
N743        N  0.44509516  0.74297119  0.19514962    -0.07490
N744        N  0.43531691  0.75200168  0.16756002    -0.60240
N745        N  0.44330348  0.69127466  0.25300772    -0.05220
N746        N  0.42867321  0.66791489  0.26594118    -0.61310
Mn747      Mn  0.43862048  0.74099168  0.26726721     1.18440
C748        C  0.43713020  0.64209329  0.24914184     0.96980
C749        C  0.41014636  0.76825334  0.17424382     0.97650
N750        N  0.04069223  0.75195030  0.30941044    -0.07510
N751        N  0.05053513  0.74230546  0.33677374    -0.63820
N752        N  0.04237238  0.80511029  0.25211321    -0.06310
N753        N  0.05727244  0.82914853  0.24058955    -0.64490
N754        N  0.02568689  0.81448356  0.27611065    -0.07020
N755        N  0.02966289  0.84508535  0.28191402    -0.64080
N756        N  0.05859242  0.74255791  0.28642262    -0.05910
N757        N  0.08153184  0.72662837  0.29814182    -0.64770
Mn758      Mn  0.00000179  0.77940322  0.30299250     1.10660
C759        C  0.07581831  0.72641716  0.32966392     0.98210
C760        C  0.04901479  0.85394892  0.25907506     0.98280
N761        N  0.00989727  0.75291570  0.17683104    -0.07020
N762        N  0.00075186  0.76765166  0.15137831    -0.62400
N763        N  0.05173936  0.70538055  0.21989749    -0.06340
N764        N  0.07687473  0.69176055  0.21005520    -0.59130
N765        N  0.02884967  0.69063521  0.20754064    -0.07650
N766        N  0.53820473  0.66692032  0.18922745    -0.61960
N767        N  0.03235563  0.76795858  0.18947733    -0.06640
N768        N  0.03901542  0.79323877  0.17264196    -0.59150
Mn769      Mn  0.48590586  0.71578251  0.20204001     1.20190
Mn770      Mn  0.04730861  0.75519539  0.23710317     1.10090
Cl771      Cl  0.49297653  0.74785033  0.25232898    -0.87120
C772        C  0.01918545  0.79253242  0.14880735     0.95210
C773        C  0.06811099  0.66748209  0.19142672     0.94650
N774        N  0.30507018  0.54187924  0.24473094    -0.07280
N775        N  0.32476433  0.56435723  0.24890970    -0.59400
N776        N  0.28953826  0.99048164  0.18796068    -0.06960
N777        N  0.31109418  0.98366946  0.16794683    -0.61520
N778        N  0.27987678  0.51985513  0.18359063    -0.06550
N779        N  0.29602185  0.53341306  0.16138348    -0.59370
N780        N  0.31739471  0.01366911  0.24850964    -0.06230
N781        N  0.34599785  0.01646504  0.25489682    -0.61880
C782        C  0.34999466  0.54826581  0.25563226     0.94900
C783        C  0.31556532  0.51061635  0.15194946     0.94680
N784        N  0.24462620  0.91925449  0.23752094    -0.07460
N785        N  0.23243288  0.89421614  0.22427477    -0.59970
N786        N  0.29614583  0.95145617  0.28321632    -0.05580
N787        N  0.32068038  0.94428724  0.29858363    -0.61230
N788        N  0.27255762  0.94274697  0.29935950    -0.07490
N789        N  0.28068181  0.92922432  0.32603275    -0.60240
N790        N  0.26770186  0.92851872  0.22101337    -0.05220
N791        N  0.27150421  0.91021435  0.19584785    -0.61310
Mn792      Mn  0.29293385  0.97049072  0.23519009     1.18440
C793        C  0.24945185  0.88882390  0.19842324     0.96980
C794        C  0.31071944  0.93082348  0.32531649     0.97650
N795        N  0.21631247  0.55192808  0.20214658    -0.07510
N796        N  0.20805869  0.56659444  0.17608936    -0.63820
N797        N  0.22122284  0.56570671  0.28005556    -0.06310
N798        N  0.21746193  0.58397486  0.30526422    -0.64490
N799        N  0.24503319  0.57415907  0.26432988    -0.07020
N800        N  0.25816609  0.59808132  0.27851268    -0.64080
N801        N  0.19275699  0.54275904  0.21805942    -0.05910
N802        N  0.16815525  0.55079510  0.20323378    -0.64770
Mn803      Mn  0.26121423  0.54749286  0.22326455     1.10660
C804        C  0.17798123  0.56523681  0.17698139     0.98210
C805        C  0.24069639  0.60408152  0.30390673     0.98280
N806        N  0.20822368  0.97419984  0.31753883    -0.07020
N807        N  0.19068673  0.96105887  0.33888271    -0.62400
N808        N  0.17171016  0.97985930  0.25266987    -0.06340
N809        N  0.14274844  0.97687699  0.24836732    -0.59130
N810        N  0.18411379  0.95170477  0.25683328    -0.07650
N811        N  0.16406320  0.92927488  0.25537189    -0.61960
N812        N  0.19962782  0.00392157  0.31307246    -0.06640
N813        N  0.17787318  0.01150458  0.33251755    -0.59150
Mn814      Mn  0.22781320  0.94644484  0.27822023     1.20190
Mn815      Mn  0.19612494  0.52349384  0.26581240     1.10090
Cl816      Cl  0.24449698  0.99696285  0.25057286    -0.87120
C817        C  0.17170361  0.98463702  0.34788190     0.95210
C818        C  0.13854275  0.94510847  0.24949515     0.95010
C819        C  0.41832351  0.59008470  0.22826154    -0.14500
C820        C  0.42207483  0.61143766  0.25342528     0.07650
C821        C  0.40617153  0.60667630  0.28163531    -0.14500
C822        C  0.38443399  0.58347819  0.28344515    -0.14500
C823        C  0.37873561  0.56412137  0.25738250     0.07650
C824        C  0.39662889  0.56650461  0.23024669    -0.14500
H825        H  0.43010617  0.59338738  0.20622673     0.11630
H826        H  0.40878065  0.62266178  0.30151781     0.11630
H827        H  0.37053334  0.58227654  0.30434320     0.11630
H828        H  0.39200088  0.55211880  0.20966230     0.11630
C829        C  0.07880716  0.89567029  0.28519572    -0.14500
C830        C  0.06480429  0.88428017  0.25805754     0.07650
C831        C  0.07163529  0.89773847  0.22874436    -0.14500
C832        C  0.09379926  0.92060665  0.22623340    -0.14500
C833        C  0.10964033  0.92978510  0.25295203     0.07650
C834        C  0.10137745  0.91804597  0.28258767    -0.14500
H835        H  0.07433924  0.88510465  0.30790291     0.11630
H836        H  0.06128948  0.88890357  0.20751368     0.11630
H837        H  0.10027750  0.92901200  0.20317511     0.11630
H838        H  0.11382586  0.92452050  0.30338285     0.11630
C839        C  0.22837639  0.81022883  0.16256290    -0.14500
C840        C  0.22805670  0.81753621  0.13044764     0.07650
C841        C  0.23550807  0.84816023  0.12060211    -0.14500
C842        C  0.24351137  0.87121494  0.14273695    -0.14500
C843        C  0.24310324  0.86412472  0.17495271     0.07650
C844        C  0.23521010  0.83362292  0.18476724    -0.14500
H845        H  0.22304352  0.78654713  0.17041440     0.11630
H846        H  0.23582795  0.85394661  0.09578486     0.11630
H847        H  0.24935346  0.89473369  0.13480972     0.11630
H848        H  0.23479090  0.82781189  0.20956958     0.11630
C849        C  0.22496205  0.63960409  0.34851017    -0.14500
C850        C  0.24729274  0.62841938  0.32789191     0.07650
C851        C  0.27609516  0.64080243  0.33020364    -0.14500
C852        C  0.28244737  0.66403300  0.35279900    -0.14500
C853        C  0.25986926  0.67579945  0.37266917     0.07650
C854        C  0.23111807  0.66347685  0.37043557    -0.14500
H855        H  0.20263757  0.63039050  0.34722897     0.11630
H856        H  0.29374113  0.63239248  0.31466204     0.11630
H857        H  0.30471034  0.67338676  0.35422747     0.11630
H858        H  0.21347272  0.67223420  0.38581715     0.11630
C859        C  0.10654037  0.71639744  0.41079941    -0.14500
C860        C  0.13700948  0.71729632  0.40425611     0.07650
C861        C  0.14701882  0.71327829  0.37293717    -0.14500
C862        C  0.12682387  0.71269019  0.34815604    -0.14500
C863        C  0.09641475  0.71613611  0.35449279     0.07650
C864        C  0.08633256  0.71581037  0.38600854    -0.14500
H865        H  0.09831377  0.71921194  0.43470812     0.11630
H866        H  0.17054958  0.71333753  0.36737965     0.11630
H867        H  0.13512458  0.71256977  0.32415204     0.11630
H868        H  0.06283624  0.71786303  0.39150036     0.11630
C869        C  0.38056311  0.77795981  0.09251828    -0.14500
C870        C  0.35000578  0.77739008  0.09852087     0.07650
C871        C  0.33954911  0.78151441  0.12968287    -0.14500
C872        C  0.35937619  0.78204967  0.15483315    -0.14500
C873        C  0.38985712  0.77836653  0.14902848     0.07650
C874        C  0.40037598  0.77836349  0.11765568    -0.14500
H875        H  0.38913716  0.77495045  0.06876465     0.11630
H876        H  0.31592876  0.78164938  0.13481466     0.11630
H877        H  0.35072711  0.78234270  0.17870308     0.11630
H878        H  0.42388394  0.77586432  0.11251797     0.11630
C879        C  0.33889249  0.56326763  0.52101515    -0.14500
C880        C  0.35712509  0.56010291  0.49414003     0.07650
C881        C  0.35103718  0.57840079  0.46761153    -0.14500
C882        C  0.32878569  0.60167273  0.46883117    -0.14500
C883        C  0.31283690  0.60761513  0.49693121     0.07650
C884        C  0.31676393  0.58702270  0.52245506    -0.14500
H885        H  0.34371394  0.54958553  0.54188940     0.11630
H886        H  0.36512844  0.57650408  0.44685945     0.11630
H887        H  0.32598185  0.61698729  0.44865612     0.11630
H888        H  0.30485972  0.59116293  0.04438858     0.11630
C889        C  0.14675000  0.92941961  0.47614929    -0.14500
C890        C  0.13213150  0.93612543  0.00483003     0.07650
C891        C  0.14144993  0.92088959  0.03223154    -0.14500
C892        C  0.16330896  0.89714656  0.03058543    -0.14500
C893        C  0.17584493  0.88804255  0.50142535     0.07650
C894        C  0.16869275  0.90554020  0.47445457    -0.14500
H895        H  0.13923562  0.94047848  0.45461746     0.11630
H896        H  0.13001399  0.92538290  0.05438967     0.11630
H897        H  0.16855581  0.88401874  0.05171090     0.11630
H898        H  0.17779731  0.89872435  0.45166660     0.11630
C899        C  0.08896958  0.99578908  0.35538237    -0.14500
C900        C  0.08120361  0.97212968  0.37656494     0.07650
C901        C  0.10291357  0.94994215  0.38626377    -0.14500
C902        C  0.13265572  0.95320545  0.37670580    -0.14500
C903        C  0.14075631  0.97893664  0.35784561     0.07650
C904        C  0.11834618  0.99926305  0.34623477    -0.14500
H905        H  0.07266689  0.51332708  0.34801507     0.11630
H906        H  0.09741811  0.93190940  0.40332463     0.11630
H907        H  0.14938647  0.93676608  0.38525773     0.11630
H908        H  0.12349040  0.51865881  0.33060503     0.11630
C909        C  0.38185741  0.54169562  0.10710230    -0.14500
C910        C  0.40510789  0.52650928  0.12344973     0.07650
C911        C  0.39887897  0.50963843  0.15071959    -0.14500
C912        C  0.36960775  0.50579593  0.16029119    -0.14500
C913        C  0.34603809  0.51833348  0.14241678     0.07650
C914        C  0.35229092  0.53774684  0.11668969    -0.14500
H915        H  0.38637820  0.55412270  0.08536594     0.11630
H916        H  0.41646642  0.49740561  0.16321358     0.11630
H917        H  0.36538856  0.49179554  0.18110381     0.11630
H918        H  0.33443693  0.54814797  0.10308308     0.11630
C919        C  0.03141511  0.86344135  0.09617754    -0.14500
C920        C  0.50251757  0.86888757  0.08500522     0.07650
C921        C  0.47940444  0.84931410  0.09487495    -0.14500
C922        C  0.48517694  0.82412896  0.11514373    -0.14500
C923        C  0.01398308  0.81869460  0.12662648     0.07650
C924        C  0.03702350  0.83881169  0.11738305    -0.14500
H925        H  0.04949794  0.87845155  0.08876315     0.11630
H926        H  0.45701815  0.85307484  0.08633332     0.11630
H927        H  0.46696772  0.80921622  0.12230065     0.11630
H928        H  0.05934288  0.83514823  0.12612042     0.11630
C929        C  0.48737195  0.62316931  0.38737219    -0.14500
C930        C  0.48443999  0.62838128  0.41991488     0.07650
C931        C  0.47385420  0.65791555  0.43112332    -0.14500
C932        C  0.46709662  0.68226138  0.41012336    -0.14500
C933        C  0.46966324  0.67692398  0.37764998     0.07650
C934        C  0.47955701  0.64720325  0.36630408    -0.14500
H935        H  0.49530400  0.60046187  0.37831128     0.11630
H936        H  0.47148031  0.66237275  0.45618028     0.11630
H937        H  0.45988837  0.70524148  0.41917065     0.11630
H938        H  0.48209277  0.64297645  0.34121980     0.11630
C939        C  0.14063511  0.59735752  0.14088574    -0.14430
C940        C  0.15839788  0.58190205  0.15583335    -0.15990
C941        C  0.10263624  0.63722586  0.14931252    -0.14430
C942        C  0.08770198  0.65078822  0.16940031    -0.15990
C943        C  0.15036674  0.65331444  0.08390039    -0.14430
C944        C  0.13551808  0.63888060  0.10288818    -0.15990
C945        C  0.09773407  0.59956114  0.10687214    -0.14430
C946        C  0.08022599  0.58594810  0.09017148    -0.15990
C947        C  0.39049639  0.89706008  0.39685925    -0.14430
C948        C  0.40841438  0.91031323  0.41332878    -0.15990
C949        C  0.35198270  0.85844318  0.40094627    -0.14430
C950        C  0.33705225  0.84363032  0.41952870    -0.15990
C951        C  0.33011334  0.91523095  0.34734391    -0.14430
C952        C  0.34752329  0.90007933  0.36296933    -0.15990
C953        C  0.39907023  0.84587127  0.33434822    -0.14430
C954        C  0.38455866  0.85962830  0.35455755    -0.15990
C955        C  0.36864140  0.87871295  0.87886853    -0.03640
C956        C  0.11911303  0.61840627  0.62504661    -0.03640
N957        N  0.43197006  0.54134608  0.00712073    -0.07280
N958        N  0.41117868  0.56266432  0.00110268    -0.59400
N959        N  0.45264708  0.99668971  0.56713668    -0.06960
N960        N  0.43465755  0.99117381  0.59093879    -0.61520
N961        N  0.46172289  0.52633800  0.56827188    -0.06550
N962        N  0.44900275  0.54142858  0.59230142    -0.59370
N963        N  0.42086603  0.51256426  0.00655811    -0.06230
N964        N  0.39204304  0.51385091  0.00063467    -0.61880
C965        C  0.38658163  0.54523681  0.99671552     0.94900
C966        C  0.43262100  0.51905132  0.60656487     0.94680
N967        N  0.49958215  0.92269990  0.52213292    -0.07460
N968        N  0.51356916  0.89929258  0.53651353    -0.59970
N969        N  0.44345203  0.94766268  0.97634945    -0.05580
N970        N  0.41865606  0.93989579  0.96196993    -0.61230
N971        N  0.46680617  0.93800584  0.95988766    -0.07490
N972        N  0.45827993  0.92332692  0.93384862    -0.60240
N973        N  0.47576045  0.93161687  0.53812726    -0.05220
N974        N  0.47268238  0.91403308  0.56354112    -0.61310
Mn975      Mn  0.44781440  0.97153865  0.52219505     1.18440
C976        C  0.49654240  0.89415891  0.56223348     0.96980
C977        C  0.42821823  0.92495547  0.93549743     0.97650
N978        N  0.52188566  0.55792017  0.54379067    -0.07510
N979        N  0.53045378  0.57252823  0.56983765    -0.63820
N980        N  0.01213856  0.56454228  0.96510629    -0.06310
N981        N  0.01435489  0.58196311  0.93941874    -0.64490
N982        N  0.48935144  0.57421232  0.98230961    -0.07020
N983        N  0.47576308  0.59852113  0.96910201    -0.64080
N984        N  0.04517282  0.54855735  0.52705245    -0.05910
N985        N  0.07000817  0.55642657  0.54134439    -0.64770
Mn986      Mn  0.47644604  0.55056388  0.52569949     1.10660
C987        C  0.06049878  0.57114129  0.56799698     0.98210
C988        C  0.49149472  0.60307365  0.94239904     0.98280
N989        N  0.02690873  0.96962803  0.93512644    -0.07020
N990        N  0.03939528  0.95497389  0.91064846    -0.62400
N991        N  0.06785334  0.98375993  0.49639553    -0.06340
N992        N  0.09689771  0.98244436  0.50107057    -0.59130
N993        N  0.05681681  0.95494783  0.49609490    -0.07650
N994        N  0.07787457  0.93360888  0.50091881    -0.61960
N995        N  0.03528303  0.99951861  0.93615542    -0.06640
N996        N  0.05237456  0.50574489  0.91184122    -0.59150
Mn997      Mn  0.01233342  0.94559863  0.97803943     1.20190
Mn998      Mn  0.04047217  0.52469655  0.98098833     1.10090
Cl999      Cl  0.49428396  0.99809432  0.00173386    -0.87120
C1000       C  0.05474659  0.97800438  0.89601192     0.95210
C1001       C  0.10257251  0.95101835  0.50447715     0.95010
N1002       N  0.27880265  0.80265901  0.95500778    -0.07280
N1003       N  0.28775070  0.82688829  0.93789021    -0.59400
N1004       N  0.28048954  0.72550131  0.93565990    -0.06960
N1005       N  0.28655452  0.70020897  0.91796122    -0.61520
N1006       N  0.25738742  0.74102338  0.92449283    -0.06550
N1007       N  0.24708040  0.72657764  0.89928809    -0.59370
N1008       N  0.30188537  0.78720979  0.96653106    -0.06230
N1009       N  0.32684719  0.80075856  0.95732178    -0.61880
C1010       C  0.31767146  0.82578060  0.93999258     0.94900
C1011       C  0.26564700  0.70148859  0.89522819     0.94680
N1012       N  0.27606477  0.67885220  0.52105751    -0.07460
N1013       N  0.27942646  0.64778239  0.52500061    -0.59970
N1014       N  0.31100953  0.74943423  0.53172045    -0.05580
N1015       N  0.33406611  0.76535731  0.54262989    -0.61230
N1016       N  0.29407710  0.74036288  0.55531382    -0.07490
N1017       N  0.30464940  0.75029128  0.58231526    -0.60240
N1018       N  0.29206273  0.68813847  0.99682794    -0.05220
N1019       N  0.30581431  0.66383521  0.98341565    -0.61310
Mn1020     Mn  0.29745382  0.73763015  0.98280170     1.18440
C1021       C  0.29776101  0.63876006  0.50086019     0.96980
C1022       C  0.32938048  0.76593724  0.57433289     0.97650
N1023       N  0.19366553  0.75421037  0.94648351    -0.07510
N1024       N  0.18281616  0.74405897  0.91968844    -0.63820
N1025       N  0.19620558  0.80743020  0.00430164    -0.06310
N1026       N  0.18252947  0.83220931  0.51704080    -0.64490
N1027       N  0.21203589  0.81598509  0.97969353    -0.07020
N1028       N  0.20873863  0.84685948  0.97476503    -0.64080
N1029       N  0.17676117  0.74569415  0.97029204    -0.05910
N1030       N  0.15349240  0.72986662  0.95979270    -0.64770
Mn1031     Mn  0.23532436  0.77938601  0.95108437     1.10660
C1032       C  0.15796597  0.72880668  0.92807707     0.98210
C1033       C  0.19059975  0.85668068  0.99869217     0.98280
N1034       N  0.23031064  0.75319557  0.57758968    -0.07020
N1035       N  0.23984654  0.76654852  0.60375794    -0.62400
N1036       N  0.18590380  0.70831373  0.53544970    -0.06340
N1037       N  0.16082463  0.69550942  0.54538819    -0.59130
N1038       N  0.20887581  0.69226660  0.54647822    -0.07650
N1039       N  0.19968974  0.66846531  0.56405898    -0.61960
N1040       N  0.20835567  0.76997129  0.56561773    -0.06640
N1041       N  0.20284177  0.79545796  0.58316555    -0.59150
Mn1042     Mn  0.25250935  0.71510321  0.55040269     1.20190
Mn1043     Mn  0.19078177  0.75788602  0.51886676     1.10090
Cl1044     Cl  0.24400822  0.74749417  0.00079879    -0.87120
C1045       C  0.22235551  0.79262201  0.60709152     0.95210
C1046       C  0.16974853  0.67038955  0.56271677     0.95010
N1047       N  0.45750444  0.80504156  0.79712357    -0.07280
N1048       N  0.44834969  0.82895402  0.81523154    -0.59400
N1049       N  0.45326745  0.72778910  0.81475350    -0.06960
N1050       N  0.44627701  0.70230566  0.83105594    -0.61520
N1051       N  0.47543136  0.74266021  0.82811762    -0.06550
N1052       N  0.48361876  0.72801082  0.85403451    -0.59370
N1053       N  0.43457258  0.79080357  0.78430932    -0.06230
N1054       N  0.40953930  0.80490997  0.79372535    -0.61880
C1055       C  0.41850661  0.82899689  0.81248247     0.94900
C1056       C  0.46503772  0.70318329  0.85576293     0.94680
N1057       N  0.46024011  0.68076639  0.72968582    -0.07460
N1058       N  0.45664915  0.64971758  0.72583558    -0.59970
N1059       N  0.42730614  0.75314123  0.71789452    -0.05580
N1060       N  0.40442332  0.76889629  0.70578329    -0.61230
N1061       N  0.44509515  0.74297118  0.69514962    -0.07490
N1062       N  0.43531691  0.75200168  0.66756002    -0.60240
N1063       N  0.44330348  0.69127466  0.75300773    -0.05220
N1064       N  0.42867321  0.66791489  0.76594119    -0.61310
Mn1065     Mn  0.43862049  0.74099168  0.76726722     1.18440
C1066       C  0.43713020  0.64209329  0.74914185     0.96980
C1067       C  0.41014636  0.76825333  0.67424382     0.97650
N1068       N  0.04069224  0.75195030  0.80941044    -0.07510
N1069       N  0.05053513  0.74230546  0.83677373    -0.63820
N1070       N  0.04237238  0.80511029  0.75211320    -0.06310
N1071       N  0.05727244  0.82914853  0.74058954    -0.64490
N1072       N  0.02568689  0.81448356  0.77611064    -0.07020
N1073       N  0.02966289  0.84508535  0.78191401    -0.64080
N1074       N  0.05859242  0.74255791  0.78642262    -0.05910
N1075       N  0.08153184  0.72662837  0.79814182    -0.64770
Mn1076     Mn  0.00000180  0.77940322  0.80299249     1.10660
C1077       C  0.07581831  0.72641716  0.82966392     0.98210
C1078       C  0.04901479  0.85394892  0.75907506     0.98280
N1079       N  0.00989727  0.75291569  0.67683104    -0.07020
N1080       N  0.00075186  0.76765165  0.65137830    -0.62400
N1081       N  0.05173936  0.70538054  0.71989749    -0.06340
N1082       N  0.07687473  0.69176055  0.71005520    -0.59130
N1083       N  0.02884967  0.69063520  0.70754064    -0.07650
N1084       N  0.53820472  0.66692031  0.68922746    -0.61960
N1085       N  0.03235563  0.76795858  0.68947733    -0.06640
N1086       N  0.03901542  0.79323876  0.67264196    -0.59150
Mn1087     Mn  0.48590586  0.71578250  0.70204002     1.20190
Mn1088     Mn  0.04730861  0.75519539  0.73710317     1.10090
Cl1089     Cl  0.49297653  0.74785033  0.75232898    -0.87120
C1090       C  0.01918545  0.79253240  0.64880735     0.95210
C1091       C  0.06811099  0.66748209  0.69142672     0.94650
N1092       N  0.30507018  0.54187924  0.74473093    -0.07280
N1093       N  0.32476433  0.56435723  0.74890971    -0.59400
N1094       N  0.28953826  0.99048164  0.68796068    -0.06960
N1095       N  0.31109418  0.98366946  0.66794682    -0.61520
N1096       N  0.27987677  0.51985513  0.68359062    -0.06550
N1097       N  0.29602184  0.53341306  0.66138348    -0.59370
N1098       N  0.31739471  0.01366911  0.74850964    -0.06230
N1099       N  0.34599785  0.01646504  0.75489682    -0.61880
C1100       C  0.34999465  0.54826580  0.75563227     0.94900
C1101       C  0.31556531  0.51061635  0.65194945     0.94680
N1102       N  0.24462621  0.91925449  0.73752094    -0.07460
N1103       N  0.23243289  0.89421614  0.72427478    -0.59970
N1104       N  0.29614585  0.95145618  0.78321631    -0.05580
N1105       N  0.32068039  0.94428724  0.79858363    -0.61230
N1106       N  0.27255763  0.94274697  0.79935950    -0.07490
N1107       N  0.28068182  0.92922432  0.82603275    -0.60240
N1108       N  0.26770187  0.92851872  0.72101337    -0.05220
N1109       N  0.27150422  0.91021435  0.69584785    -0.61310
Mn1110     Mn  0.29293386  0.97049072  0.73519009     1.18440
C1111       C  0.24945186  0.88882390  0.69842324     0.96980
C1112       C  0.31071946  0.93082348  0.82531649     0.97650
N1113       N  0.21631246  0.55192808  0.70214659    -0.07510
N1114       N  0.20805868  0.56659444  0.67608936    -0.63820
N1115       N  0.22122284  0.56570671  0.78005556    -0.06310
N1116       N  0.21746193  0.58397486  0.80526422    -0.64490
N1117       N  0.24503319  0.57415907  0.76432989    -0.07020
N1118       N  0.25816609  0.59808132  0.77851268    -0.64080
N1119       N  0.19275699  0.54275904  0.71805942    -0.05910
N1120       N  0.16815524  0.55079510  0.70323378    -0.64770
Mn1121     Mn  0.26121422  0.54749286  0.72326455     1.10660
C1122       C  0.17798122  0.56523681  0.67698139     0.98210
C1123       C  0.24069640  0.60408153  0.80390673     0.98280
N1124       N  0.20822369  0.97419984  0.81753883    -0.07020
N1125       N  0.19068674  0.96105887  0.83888271    -0.62400
N1126       N  0.17171017  0.97985929  0.75266988    -0.06340
N1127       N  0.14274845  0.97687699  0.74836732    -0.59130
N1128       N  0.18411380  0.95170477  0.75683328    -0.07650
N1129       N  0.16406321  0.92927487  0.75537189    -0.61960
N1130       N  0.19962783  0.00392157  0.81307247    -0.06640
N1131       N  0.17787319  0.01150457  0.83251755    -0.59150
Mn1132     Mn  0.22781321  0.94644484  0.77822023     1.20190
Mn1133     Mn  0.19612494  0.52349384  0.76581240     1.10090
Cl1134     Cl  0.24449698  0.99696285  0.75057286    -0.87120
C1135       C  0.17170362  0.98463702  0.84788191     0.95210
C1136       C  0.13854276  0.94510846  0.74949516     0.95010
C1137       C  0.41832351  0.59008469  0.72826156    -0.14500
C1138       C  0.42207483  0.61143766  0.75342529     0.07650
C1139       C  0.40617152  0.60667630  0.78163531    -0.14500
C1140       C  0.38443397  0.58347820  0.78344516    -0.14500
C1141       C  0.37873560  0.56412137  0.75738251     0.07650
C1142       C  0.39662890  0.56650460  0.73024671    -0.14500
H1143       H  0.43010618  0.59338737  0.70622675     0.11630
H1144       H  0.40878063  0.62266180  0.80151782     0.11630
H1145       H  0.37053332  0.58227655  0.80434320     0.11630
H1146       H  0.39200089  0.55211879  0.70966232     0.11630
C1147       C  0.07880718  0.89567027  0.78519572    -0.14500
C1148       C  0.06480430  0.88428017  0.75805754     0.07650
C1149       C  0.07163529  0.89773848  0.72874437    -0.14500
C1150       C  0.09379926  0.92060665  0.72623341    -0.14500
C1151       C  0.10964034  0.92978509  0.75295204     0.07650
C1152       C  0.10137748  0.91804594  0.78258767    -0.14500
H1153       H  0.07433927  0.88510461  0.80790291     0.11630
H1154       H  0.06128947  0.88890359  0.70751368     0.11630
H1155       H  0.10027750  0.92901202  0.70317512     0.11630
H1156       H  0.11382589  0.92452046  0.80338285     0.11630
C1157       C  0.22837635  0.81022884  0.66256291    -0.14500
C1158       C  0.22805671  0.81753620  0.63044765     0.07650
C1159       C  0.23550813  0.84816021  0.62060211    -0.14500
C1160       C  0.24351142  0.87121492  0.64273695    -0.14500
C1161       C  0.24310325  0.86412472  0.67495271     0.07650
C1162       C  0.23521007  0.83362293  0.68476724    -0.14500
H1163       H  0.22304344  0.78654715  0.67041441     0.11630
H1164       H  0.23582804  0.85394658  0.59578486     0.11630
H1165       H  0.24935355  0.89473366  0.63480971     0.11630
H1166       H  0.23479083  0.82781191  0.70956959     0.11630
C1167       C  0.22496206  0.63960406  0.84851020    -0.14500
C1168       C  0.24729274  0.62841939  0.82789191     0.07650
C1169       C  0.27609515  0.64080248  0.83020360    -0.14500
C1170       C  0.28244736  0.66403304  0.85279896    -0.14500
C1171       C  0.25986927  0.67579946  0.87266916     0.07650
C1172       C  0.23111809  0.66347682  0.87043560    -0.14500
H1173       H  0.20263759  0.63039045  0.84722903     0.11630
H1174       H  0.29374112  0.63239255  0.81466198     0.11630
H1175       H  0.30471033  0.67338684  0.85422740     0.11630
H1176       H  0.21347275  0.67223415  0.88581720     0.11630
C1177       C  0.10654037  0.71639744  0.91079940    -0.14500
C1178       C  0.13700948  0.71729632  0.90425610     0.07650
C1179       C  0.14701882  0.71327829  0.87293716    -0.14500
C1180       C  0.12682387  0.71269019  0.84815604    -0.14500
C1181       C  0.09641475  0.71613611  0.85449278     0.07650
C1182       C  0.08633256  0.71581037  0.88600853    -0.14500
H1183       H  0.09831378  0.71921194  0.93470812     0.11630
H1184       H  0.17054958  0.71333753  0.86737965     0.11630
H1185       H  0.13512458  0.71256977  0.82415203     0.11630
H1186       H  0.06283625  0.71786303  0.89150036     0.11630
C1187       C  0.38056311  0.77795981  0.59251828    -0.14500
C1188       C  0.35000578  0.77739007  0.59852087     0.07650
C1189       C  0.33954910  0.78151441  0.62968288    -0.14500
C1190       C  0.35937619  0.78204967  0.65483315    -0.14500
C1191       C  0.38985712  0.77836652  0.64902848     0.07650
C1192       C  0.40037598  0.77836349  0.61765569    -0.14500
H1193       H  0.38913716  0.77495044  0.56876466     0.11630
H1194       H  0.31592876  0.78164938  0.63481466     0.11630
H1195       H  0.35072710  0.78234270  0.67870308     0.11630
H1196       H  0.42388394  0.77586431  0.61251797     0.11630
C1197       C  0.33889250  0.56326764  0.02101516    -0.14500
C1198       C  0.35712509  0.56010292  0.99414004     0.07650
C1199       C  0.35103718  0.57840080  0.96761153    -0.14500
C1200       C  0.32878569  0.60167273  0.96883118    -0.14500
C1201       C  0.31283690  0.60761513  0.99693122     0.07650
C1202       C  0.31676394  0.58702272  0.02245508    -0.14500
H1203       H  0.34371395  0.54958555  0.04188942     0.11630
H1204       H  0.36512844  0.57650408  0.94685946     0.11630
H1205       H  0.32598185  0.61698729  0.94865612     0.11630
H1206       H  0.30485971  0.59116291  0.54438857     0.11630
C1207       C  0.14675001  0.92941963  0.97614930    -0.14500
C1208       C  0.13213149  0.93612542  0.50483002     0.07650
C1209       C  0.14144993  0.92088958  0.53223154    -0.14500
C1210       C  0.16330896  0.89714655  0.53058543    -0.14500
C1211       C  0.17584493  0.88804256  0.00142535     0.07650
C1212       C  0.16869276  0.90554022  0.97445458    -0.14500
H1213       H  0.13923564  0.94047851  0.95461746     0.11630
H1214       H  0.13001400  0.92538289  0.55438966     0.11630
H1215       H  0.16855581  0.88401874  0.55171090     0.11630
H1216       H  0.17779732  0.89872437  0.95166661     0.11630
C1217       C  0.08896959  0.99578908  0.85538237    -0.14500
C1218       C  0.08120362  0.97212968  0.87656494     0.07650
C1219       C  0.10291359  0.94994215  0.88626378    -0.14500
C1220       C  0.13265573  0.95320545  0.87670581    -0.14500
C1221       C  0.14075633  0.97893664  0.85784562     0.07650
C1222       C  0.11834619  0.99926304  0.84623478    -0.14500
H1223       H  0.07266689  0.51332707  0.84801507     0.11630
H1224       H  0.09741812  0.93190941  0.90332464     0.11630
H1225       H  0.14938648  0.93676608  0.88525774     0.11630
H1226       H  0.12349040  0.51865881  0.83060503     0.11630
C1227       C  0.38185739  0.54169559  0.60710227    -0.14500
C1228       C  0.40510787  0.52650928  0.62344971     0.07650
C1229       C  0.39887896  0.50963845  0.65071959    -0.14500
C1230       C  0.36960774  0.50579596  0.66029119    -0.14500
C1231       C  0.34603807  0.51833349  0.64241677     0.07650
C1232       C  0.35229090  0.53774682  0.61668966    -0.14500
H1233       H  0.38637818  0.55412265  0.58536589     0.11630
H1234       H  0.41646641  0.49740566  0.66321360     0.11630
H1235       H  0.36538855  0.49179559  0.68110383     0.11630
H1236       H  0.33443691  0.54814793  0.60308303     0.11630
C1237       C  0.03141509  0.86344136  0.59617755    -0.14500
C1238       C  0.50251756  0.86888755  0.58500521     0.07650
C1239       C  0.47940444  0.84931406  0.59487491    -0.14500
C1240       C  0.48517694  0.82412892  0.61514368    -0.14500
C1241       C  0.01398308  0.81869458  0.62662647     0.07650
C1242       C  0.03702349  0.83881169  0.61738306    -0.14500
H1243       H  0.04949792  0.87845157  0.58876318     0.11630
H1244       H  0.45701816  0.85307478  0.58633325     0.11630
H1245       H  0.46696773  0.80921616  0.62230059     0.11630
H1246       H  0.05934287  0.83514826  0.62612045     0.11630
C1247       C  0.48737190  0.62316929  0.88737219    -0.14500
C1248       C  0.48444000  0.62838129  0.91991488     0.07650
C1249       C  0.47385427  0.65791557  0.93112333    -0.14500
C1250       C  0.46709670  0.68226141  0.91012337    -0.14500
C1251       C  0.46966325  0.67692399  0.87764999     0.07650
C1252       C  0.47955695  0.64720324  0.86630408    -0.14500
H1253       H  0.49530390  0.60046184  0.87831128     0.11630
H1254       H  0.47148043  0.66237279  0.95618029     0.11630
H1255       H  0.45988850  0.70524153  0.91917066     0.11630
H1256       H  0.48209266  0.64297642  0.84121980     0.11630
C1257       C  0.14063510  0.59735751  0.64088574    -0.14430
C1258       C  0.15839787  0.58190204  0.65583335    -0.15990
C1259       C  0.10263623  0.63722585  0.64931252    -0.14430
C1260       C  0.08770197  0.65078822  0.66940031    -0.15990
C1261       C  0.15036673  0.65331443  0.58390039    -0.14430
C1262       C  0.13551808  0.63888060  0.60288818    -0.15990
C1263       C  0.09773406  0.59956113  0.60687214    -0.14430
C1264       C  0.08022598  0.58594809  0.59017148    -0.15990
C1265       C  0.39049640  0.89706009  0.89685926    -0.14430
C1266       C  0.40841439  0.91031324  0.91332879    -0.15990
C1267       C  0.35198270  0.85844319  0.90094627    -0.14430
C1268       C  0.33705225  0.84363033  0.91952870    -0.15990
C1269       C  0.33011336  0.91523096  0.84734391    -0.14430
C1270       C  0.34752330  0.90007934  0.86296933    -0.15990
C1271       C  0.39907023  0.84587128  0.83434822    -0.14430
C1272       C  0.38455867  0.85962831  0.85455756    -0.15990
C1273       C  0.86864139  0.37871294  0.37886852    -0.03640
C1274       C  0.61911304  0.11840628  0.12504660    -0.03640
N1275       N  0.93197005  0.04134608  0.50712073    -0.07280
N1276       N  0.91117867  0.06266432  0.50110268    -0.59400
N1277       N  0.95264708  0.49668972  0.06713668    -0.06960
N1278       N  0.93465755  0.49117382  0.09093879    -0.61520
N1279       N  0.96172290  0.02633802  0.06827189    -0.06550
N1280       N  0.94900277  0.04142860  0.09230143    -0.59370
N1281       N  0.92086602  0.01256425  0.50655811    -0.06230
N1282       N  0.89204303  0.01385090  0.50063467    -0.61880
C1283       C  0.88658163  0.04523680  0.49671552     0.94900
C1284       C  0.93262103  0.01905133  0.10656489     0.94680
N1285       N  0.99958216  0.42269991  0.02213292    -0.07460
N1286       N  0.01356916  0.39929259  0.03651353    -0.59970
N1287       N  0.94345202  0.44766267  0.47634944    -0.05580
N1288       N  0.91865605  0.43989578  0.46196992    -0.61230
N1289       N  0.96680616  0.43800583  0.45988765    -0.07490
N1290       N  0.95827992  0.42332691  0.43384860    -0.60240
N1291       N  0.97576045  0.43161688  0.03812727    -0.05220
N1292       N  0.97268238  0.41403309  0.06354112    -0.61310
Mn1293     Mn  0.94781440  0.47153866  0.02219505     1.18440
C1294       C  0.99654241  0.39415892  0.06223348     0.96980
C1295       C  0.92821823  0.42495546  0.43549742     0.97650
N1296       N  0.02188567  0.05792018  0.04379066    -0.07510
N1297       N  0.03045379  0.07252825  0.06983764    -0.63820
N1298       N  0.51213856  0.06454227  0.46510629    -0.06310
N1299       N  0.51435488  0.08196311  0.43941874    -0.64490
N1300       N  0.98935143  0.07421232  0.48230961    -0.07020
N1301       N  0.97576307  0.09852113  0.46910201    -0.64080
N1302       N  0.54517282  0.04855736  0.02705244    -0.05910
N1303       N  0.57000818  0.05642658  0.04134439    -0.64770
Mn1304     Mn  0.97644605  0.05056389  0.02569949     1.10660
C1305       C  0.56049879  0.07114130  0.06799698     0.98210
C1306       C  0.99149471  0.10307364  0.44239904     0.98280
N1307       N  0.52690872  0.46962802  0.43512643    -0.07020
N1308       N  0.53939527  0.45497389  0.41064845    -0.62400
N1309       N  0.56785334  0.48375993  0.99639554    -0.06340
N1310       N  0.59689771  0.48244437  0.00107057    -0.59130
N1311       N  0.55681681  0.45494784  0.99609490    -0.07650
N1312       N  0.57787457  0.43360889  0.00091880    -0.61960
N1313       N  0.53528303  0.49951861  0.43615541    -0.06640
N1314       N  0.55237455  0.00574488  0.41184121    -0.59150
Mn1315     Mn  0.51233341  0.44559862  0.47803942     1.20190
Mn1316     Mn  0.54047217  0.02469654  0.48098833     1.10090
Cl1317     Cl  0.99428395  0.49809431  0.50173385    -0.87120
C1318       C  0.55474658  0.47800438  0.39601192     0.95210
C1319       C  0.60257252  0.45101835  0.00447715     0.95010
N1320       N  0.77880265  0.30265901  0.45500778    -0.07280
N1321       N  0.78775070  0.32688828  0.43789021    -0.59400
N1322       N  0.78048954  0.22550130  0.43565991    -0.06960
N1323       N  0.78655451  0.20020896  0.41796122    -0.61520
N1324       N  0.75738741  0.24102337  0.42449283    -0.06550
N1325       N  0.74708039  0.22657763  0.39928809    -0.59370
N1326       N  0.80188537  0.28720978  0.46653106    -0.06230
N1327       N  0.82684719  0.30075855  0.45732178    -0.61880
C1328       C  0.81767146  0.32578059  0.43999258     0.94900
C1329       C  0.76564700  0.20148859  0.39522819     0.94680
N1330       N  0.77606477  0.17885221  0.02105752    -0.07460
N1331       N  0.77942646  0.14778240  0.02500063    -0.59970
N1332       N  0.81100953  0.24943424  0.03172045    -0.05580
N1333       N  0.83406611  0.26535732  0.04262989    -0.61230
N1334       N  0.79407710  0.24036290  0.05531382    -0.07490
N1335       N  0.80464940  0.25029129  0.08231526    -0.60240
N1336       N  0.79206273  0.18813846  0.49682794    -0.05220
N1337       N  0.80581431  0.16383520  0.48341566    -0.61310
Mn1338     Mn  0.79745382  0.23763014  0.48280170     1.18440
C1339       C  0.79776101  0.13876006  0.00086020     0.96980
C1340       C  0.82938048  0.26593725  0.07433288     0.97650
N1341       N  0.69366553  0.25421037  0.44648351    -0.07510
N1342       N  0.68281615  0.24405896  0.41968844    -0.63820
N1343       N  0.69620558  0.30743019  0.50430164    -0.06310
N1344       N  0.68252947  0.33220932  0.01704079    -0.64490
N1345       N  0.71203589  0.31598508  0.47969353    -0.07020
N1346       N  0.70873862  0.34685947  0.47476503    -0.64080
N1347       N  0.67676117  0.24569415  0.47029204    -0.05910
N1348       N  0.65349239  0.22986662  0.45979270    -0.64770
Mn1349     Mn  0.73532436  0.27938600  0.45108437     1.10660
C1350       C  0.65796596  0.22880667  0.42807707     0.98210
C1351       C  0.69059975  0.35668068  0.49869217     0.98280
N1352       N  0.73031064  0.25319559  0.07758967    -0.07020
N1353       N  0.73984653  0.26654854  0.10375794    -0.62400
N1354       N  0.68590380  0.20831374  0.03544969    -0.06340
N1355       N  0.66082464  0.19550943  0.04538818    -0.59130
N1356       N  0.70887581  0.19226661  0.04647822    -0.07650
N1357       N  0.69968974  0.16846532  0.06405898    -0.61960
N1358       N  0.70835567  0.26997130  0.06561773    -0.06640
N1359       N  0.70284176  0.29545797  0.08316554    -0.59150
Mn1360     Mn  0.75250935  0.21510322  0.05040269     1.20190
Mn1361     Mn  0.69078177  0.25788603  0.01886675     1.10090
Cl1362     Cl  0.74400822  0.24749417  0.50079879    -0.87120
C1363       C  0.72235551  0.29262203  0.10709151     0.95210
C1364       C  0.66974853  0.17038956  0.06271676     0.95010
N1365       N  0.95750443  0.30504155  0.29712357    -0.07280
N1366       N  0.94834968  0.32895401  0.31523154    -0.59400
N1367       N  0.95326745  0.22778908  0.31475349    -0.06960
N1368       N  0.94627701  0.20230564  0.33105593    -0.61520
N1369       N  0.97543136  0.24266019  0.32811761    -0.06550
N1370       N  0.98361875  0.22801081  0.35403451    -0.59370
N1371       N  0.93457257  0.29080355  0.28430931    -0.06230
N1372       N  0.90953929  0.30490995  0.29372534    -0.61880
C1373       C  0.91850660  0.32899688  0.31248246     0.94900
C1374       C  0.96503771  0.20318327  0.35576292     0.94680
N1375       N  0.96024012  0.18076639  0.22968580    -0.07460
N1376       N  0.95664915  0.14971757  0.22583556    -0.59970
N1377       N  0.92730614  0.25314122  0.21789451    -0.05580
N1378       N  0.90442332  0.26889628  0.20578328    -0.61230
N1379       N  0.94509516  0.24297118  0.19514961    -0.07490
N1380       N  0.93531691  0.25200168  0.16756001    -0.60240
N1381       N  0.94330348  0.19127465  0.25300772    -0.05220
N1382       N  0.92867322  0.16791488  0.26594117    -0.61310
Mn1383     Mn  0.93862048  0.24099167  0.26726721     1.18440
C1384       C  0.93713021  0.14209328  0.24914183     0.96980
C1385       C  0.91014636  0.26825333  0.17424381     0.97650
N1386       N  0.54069223  0.25195030  0.30941044    -0.07510
N1387       N  0.55053513  0.24230545  0.33677373    -0.63820
N1388       N  0.54237238  0.30511029  0.25211320    -0.06310
N1389       N  0.55727244  0.32914853  0.24058955    -0.64490
N1390       N  0.52568688  0.31448355  0.27611064    -0.07020
N1391       N  0.52966289  0.34508534  0.28191402    -0.64080
N1392       N  0.55859242  0.24255791  0.28642261    -0.05910
N1393       N  0.58153184  0.22662837  0.29814182    -0.64770
Mn1394     Mn  0.50000179  0.27940321  0.30299249     1.10660
C1395       C  0.57581831  0.22641716  0.32966392     0.98210
C1396       C  0.54901479  0.35394892  0.25907507     0.98280
N1397       N  0.50989727  0.25291569  0.17683103    -0.07020
N1398       N  0.50075186  0.26765165  0.15137830    -0.62400
N1399       N  0.55173937  0.20538055  0.21989749    -0.06340
N1400       N  0.57687474  0.19176055  0.21005520    -0.59130
N1401       N  0.52884967  0.19063520  0.20754063    -0.07650
N1402       N  0.03820473  0.16692031  0.18922745    -0.61960
N1403       N  0.53235563  0.26795858  0.18947733    -0.06640
N1404       N  0.53901542  0.29323877  0.17264196    -0.59150
Mn1405     Mn  0.98590586  0.21578250  0.20204001     1.20190
Mn1406     Mn  0.54730861  0.25519539  0.23710316     1.10090
Cl1407     Cl  0.99297653  0.24785032  0.25232898    -0.87120
C1408       C  0.51918545  0.29253241  0.14880735     0.95210
C1409       C  0.56811100  0.16748209  0.19142672     0.94650
N1410       N  0.80507018  0.04187924  0.24473094    -0.07280
N1411       N  0.82476433  0.06435723  0.24890970    -0.59400
N1412       N  0.78953826  0.49048165  0.18796068    -0.06960
N1413       N  0.81109418  0.48366947  0.16794682    -0.61520
N1414       N  0.77987678  0.01985512  0.18359063    -0.06550
N1415       N  0.79602187  0.03341306  0.16138349    -0.59370
N1416       N  0.81739471  0.51366912  0.24850964    -0.06230
N1417       N  0.84599785  0.51646504  0.25489682    -0.61880
C1418       C  0.84999466  0.04826580  0.25563225     0.94900
C1419       C  0.81556534  0.01061634  0.15194948     0.94680
N1420       N  0.74462621  0.41925449  0.23752094    -0.07460
N1421       N  0.73243289  0.39421614  0.22427477    -0.59970
N1422       N  0.79614584  0.45145618  0.28321632    -0.05580
N1423       N  0.82068038  0.44428724  0.29858363    -0.61230
N1424       N  0.77255763  0.44274697  0.29935950    -0.07490
N1425       N  0.78068182  0.42922432  0.32603275    -0.60240
N1426       N  0.76770187  0.42851872  0.22101337    -0.05220
N1427       N  0.77150422  0.41021435  0.19584785    -0.61310
Mn1428     Mn  0.79293386  0.47049072  0.23519009     1.18440
C1429       C  0.74945185  0.38882391  0.19842324     0.96980
C1430       C  0.81071945  0.43082348  0.32531649     0.97650
N1431       N  0.71631247  0.05192808  0.20214658    -0.07510
N1432       N  0.70805869  0.06659443  0.17608935    -0.63820
N1433       N  0.72122284  0.06570671  0.28005556    -0.06310
N1434       N  0.71746193  0.08397486  0.30526421    -0.64490
N1435       N  0.74503319  0.07415907  0.26432988    -0.07020
N1436       N  0.75816609  0.09808132  0.27851267    -0.64080
N1437       N  0.69275700  0.04275904  0.21805941    -0.05910
N1438       N  0.66815525  0.05079510  0.20323377    -0.64770
Mn1439     Mn  0.76121423  0.04749286  0.22326455     1.10660
C1440       C  0.67798123  0.06523681  0.17698138     0.98210
C1441       C  0.74069639  0.10408153  0.30390673     0.98280
N1442       N  0.70822368  0.47419984  0.31753883    -0.07020
N1443       N  0.69068674  0.46105887  0.33888271    -0.62400
N1444       N  0.67171017  0.47985929  0.25266988    -0.06340
N1445       N  0.64274845  0.47687698  0.24836733    -0.59130
N1446       N  0.68411380  0.45170477  0.25683328    -0.07650
N1447       N  0.66406321  0.42927487  0.25537190    -0.61960
N1448       N  0.69962782  0.50392157  0.31307246    -0.06640
N1449       N  0.67787318  0.51150457  0.33251755    -0.59150
Mn1450     Mn  0.72781321  0.44644484  0.27822023     1.20190
Mn1451     Mn  0.69612494  0.02349384  0.26581239     1.10090
Cl1452     Cl  0.74449698  0.49696285  0.25057286    -0.87120
C1453       C  0.67170362  0.48463702  0.34788191     0.95210
C1454       C  0.63854276  0.44510845  0.24949516     0.95010
C1455       C  0.91832350  0.09008470  0.22826151    -0.14500
C1456       C  0.92207484  0.11143765  0.25342526     0.07650
C1457       C  0.90617156  0.10667627  0.28163529    -0.14500
C1458       C  0.88443401  0.08347817  0.28344514    -0.14500
C1459       C  0.87873561  0.06412136  0.25738248     0.07650
C1460       C  0.89662888  0.06650461  0.23024666    -0.14500
H1461       H  0.93010615  0.09338739  0.20622670     0.11630
H1462       H  0.90878068  0.12266174  0.30151781     0.11630
H1463       H  0.87053338  0.08227650  0.30434320     0.11630
H1464       H  0.89200086  0.05211882  0.20966227     0.11630
C1465       C  0.57880719  0.39567025  0.28519573    -0.14500
C1466       C  0.56480429  0.38428016  0.25805755     0.07650
C1467       C  0.57163527  0.39773850  0.22874439    -0.14500
C1468       C  0.59379924  0.42060667  0.22623343    -0.14500
C1469       C  0.60964034  0.42978508  0.25295205     0.07650
C1470       C  0.60137749  0.41804592  0.28258769    -0.14500
H1471       H  0.57433930  0.38510457  0.30790292     0.11630
H1472       H  0.56128944  0.38890363  0.20751370     0.11630
H1473       H  0.60027746  0.42901205  0.20317514     0.11630
H1474       H  0.61382592  0.42452042  0.30338286     0.11630
C1475       C  0.72837632  0.31022885  0.16256290    -0.14500
C1476       C  0.72805671  0.31753622  0.13044764     0.07650
C1477       C  0.73550815  0.34816021  0.12060210    -0.14500
C1478       C  0.74351145  0.37121492  0.14273694    -0.14500
C1479       C  0.74310325  0.36412472  0.17495271     0.07650
C1480       C  0.73521003  0.33362294  0.18476724    -0.14500
H1481       H  0.72304338  0.28654717  0.17041440     0.11630
H1482       H  0.73582809  0.35394658  0.09578485     0.11630
H1483       H  0.74935360  0.39473366  0.13480971     0.11630
H1484       H  0.73479077  0.32781193  0.20956958     0.11630
C1485       C  0.72496206  0.13960406  0.34851020    -0.14500
C1486       C  0.74729274  0.12841939  0.32789191     0.07650
C1487       C  0.77609515  0.14080247  0.33020360    -0.14500
C1488       C  0.78244736  0.16403304  0.35279896    -0.14500
C1489       C  0.75986926  0.17579946  0.37266916     0.07650
C1490       C  0.73111808  0.16347682  0.37043560    -0.14500
H1491       H  0.70263759  0.13039045  0.34722902     0.11630
H1492       H  0.79374111  0.13239255  0.31466197     0.11630
H1493       H  0.80471032  0.17338683  0.35422740     0.11630
H1494       H  0.71347275  0.17223414  0.38581720     0.11630
C1495       C  0.60654036  0.21639744  0.41079941    -0.14500
C1496       C  0.63700948  0.21729632  0.40425610     0.07650
C1497       C  0.64701882  0.21327828  0.37293716    -0.14500
C1498       C  0.62682387  0.21269019  0.34815604    -0.14500
C1499       C  0.59641475  0.21613611  0.35449279     0.07650
C1500       C  0.58633256  0.21581037  0.38600853    -0.14500
H1501       H  0.59831377  0.21921194  0.43470812     0.11630
H1502       H  0.67054958  0.21333753  0.36737965     0.11630
H1503       H  0.63512458  0.21256977  0.32415203     0.11630
H1504       H  0.56283624  0.21786303  0.39150036     0.11630
C1505       C  0.88056311  0.27795981  0.09251828    -0.14500
C1506       C  0.85000579  0.27739008  0.09852087     0.07650
C1507       C  0.83954911  0.28151442  0.12968287    -0.14500
C1508       C  0.85937620  0.28204968  0.15483315    -0.14500
C1509       C  0.88985712  0.27836652  0.14902847     0.07650
C1510       C  0.90037598  0.27836349  0.11765568    -0.14500
H1511       H  0.88913716  0.27495045  0.06876465     0.11630
H1512       H  0.81592877  0.28164939  0.13481465     0.11630
H1513       H  0.85072711  0.28234271  0.17870307     0.11630
H1514       H  0.92388394  0.27586431  0.11251797     0.11630
C1515       C  0.83889250  0.06326764  0.52101516    -0.14500
C1516       C  0.85712509  0.06010291  0.49414004     0.07650
C1517       C  0.85103718  0.07840079  0.46761153    -0.14500
C1518       C  0.82878569  0.10167272  0.46883118    -0.14500
C1519       C  0.81283690  0.10761513  0.49693122     0.07650
C1520       C  0.81676394  0.08702271  0.52245508    -0.14500
H1521       H  0.84371395  0.04958554  0.54188942     0.11630
H1522       H  0.86512843  0.07650407  0.44685946     0.11630
H1523       H  0.82598184  0.11698728  0.44865612     0.11630
H1524       H  0.80485975  0.09116296  0.04438862     0.11630
C1525       C  0.64675000  0.42941962  0.47614929    -0.14500
C1526       C  0.63213150  0.43612543  0.00483001     0.07650
C1527       C  0.64144994  0.42088960  0.03223153    -0.14500
C1528       C  0.66330898  0.39714657  0.03058542    -0.14500
C1529       C  0.67584493  0.38804255  0.50142534     0.07650
C1530       C  0.66869275  0.40554020  0.47445457    -0.14500
H1531       H  0.63923562  0.44047849  0.45461745     0.11630
H1532       H  0.63001402  0.42538291  0.05438966     0.11630
H1533       H  0.66855583  0.38401876  0.05171089     0.11630
H1534       H  0.67779731  0.39872436  0.45166660     0.11630
C1535       C  0.58896959  0.49578909  0.35538237    -0.14500
C1536       C  0.58120362  0.47212969  0.37656494     0.07650
C1537       C  0.60291358  0.44994215  0.38626377    -0.14500
C1538       C  0.63265572  0.45320545  0.37670580    -0.14500
C1539       C  0.64075632  0.47893664  0.35784561     0.07650
C1540       C  0.61834619  0.49926305  0.34623478    -0.14500
H1541       H  0.57266688  0.01332707  0.34801506     0.11630
H1542       H  0.59741811  0.43190940  0.40332463     0.11630
H1543       H  0.64938647  0.43676608  0.38525773     0.11630
H1544       H  0.62349038  0.01865881  0.33060503     0.11630
C1545       C  0.88185745  0.04169567  0.10710239    -0.14500
C1546       C  0.90510792  0.02650927  0.12344977     0.07650
C1547       C  0.89887900  0.00963834  0.15071958    -0.14500
C1548       C  0.86960777  0.00579584  0.16029117    -0.14500
C1549       C  0.84603812  0.01833346  0.14241680     0.07650
C1550       C  0.85229095  0.03774690  0.11668977    -0.14500
H1551       H  0.88637825  0.05412282  0.08536607     0.11630
H1552       H  0.91646644  0.99740547  0.16321353     0.11630
H1553       H  0.86538858  0.99179539  0.18110375     0.11630
H1554       H  0.83443697  0.04814809  0.10308320     0.11630
C1555       C  0.53141510  0.36344136  0.09617755    -0.14500
C1556       C  0.00251756  0.36888756  0.08500521     0.07650
C1557       C  0.97940444  0.34931408  0.09487493    -0.14500
C1558       C  0.98517694  0.32412894  0.11514370    -0.14500
C1559       C  0.51398308  0.31869459  0.12662647     0.07650
C1560       C  0.53702350  0.33881169  0.11738306    -0.14500
H1561       H  0.54949793  0.37845156  0.08876317     0.11630
H1562       H  0.95701815  0.35307481  0.08633329     0.11630
H1563       H  0.96696772  0.30921619  0.12230062     0.11630
H1564       H  0.55934287  0.33514825  0.12612043     0.11630
C1565       C  0.98737188  0.12316927  0.38737219    -0.14500
C1566       C  0.98444000  0.12838128  0.41991488     0.07650
C1567       C  0.97385428  0.15791557  0.43112333    -0.14500
C1568       C  0.96709671  0.18226140  0.41012336    -0.14500
C1569       C  0.96966324  0.17692398  0.37764998     0.07650
C1570       C  0.97955693  0.14720322  0.36630408    -0.14500
H1571       H  0.99530386  0.10046182  0.37831128     0.11630
H1572       H  0.97148045  0.16237279  0.45618028     0.11630
H1573       H  0.95988852  0.20524153  0.41917066     0.11630
H1574       H  0.98209263  0.14297640  0.34121980     0.11630
C1575       C  0.64063511  0.09735752  0.14088574    -0.14430
C1576       C  0.65839788  0.08190205  0.15583334    -0.15990
C1577       C  0.60263624  0.13722586  0.14931252    -0.14430
C1578       C  0.58770198  0.15078822  0.16940031    -0.15990
C1579       C  0.65036674  0.15331444  0.08390039    -0.14430
C1580       C  0.63551808  0.13888061  0.10288817    -0.15990
C1581       C  0.59773407  0.09956114  0.10687214    -0.14430
C1582       C  0.58022599  0.08594810  0.09017148    -0.15990
C1583       C  0.89049640  0.39706007  0.39685925    -0.14430
C1584       C  0.90841439  0.41031322  0.41332877    -0.15990
C1585       C  0.85198270  0.35844317  0.40094627    -0.14430
C1586       C  0.83705225  0.34363032  0.41952869    -0.15990
C1587       C  0.83011335  0.41523095  0.34734391    -0.14430
C1588       C  0.84752329  0.40007933  0.36296933    -0.15990
C1589       C  0.89907022  0.34587126  0.33434821    -0.14430
C1590       C  0.88455866  0.35962830  0.35455755    -0.15990
C1591       C  0.86864140  0.37871295  0.87886852    -0.03640
C1592       C  0.61911303  0.11840627  0.62504661    -0.03640
N1593       N  0.93197006  0.04134609  0.00712073    -0.07280
N1594       N  0.91117867  0.06266433  0.00110268    -0.59400
N1595       N  0.95264707  0.49668971  0.56713667    -0.06960
N1596       N  0.93465754  0.49117381  0.59093878    -0.61520
N1597       N  0.96172289  0.02633801  0.56827189    -0.06550
N1598       N  0.94900276  0.04142859  0.59230143    -0.59370
N1599       N  0.92086603  0.01256426  0.00655812    -0.06230
N1600       N  0.89204304  0.01385091  0.00063468    -0.61880
C1601       C  0.88658163  0.04523681  0.99671553     0.94900
C1602       C  0.93262101  0.01905132  0.60656487     0.94680
N1603       N  0.99958215  0.42269990  0.52213291    -0.07460
N1604       N  0.01356916  0.39929258  0.53651352    -0.59970
N1605       N  0.94345202  0.44766268  0.97634945    -0.05580
N1606       N  0.91865605  0.43989579  0.96196993    -0.61230
N1607       N  0.96680617  0.43800584  0.95988766    -0.07490
N1608       N  0.95827992  0.42332692  0.93384861    -0.60240
N1609       N  0.97576045  0.43161687  0.53812726    -0.05220
N1610       N  0.97268238  0.41403308  0.56354111    -0.61310
Mn1611     Mn  0.94781440  0.47153865  0.52219505     1.18440
C1612       C  0.99654240  0.39415891  0.56223347     0.96980
C1613       C  0.92821823  0.42495547  0.93549742     0.97650
N1614       N  0.02188566  0.05792017  0.54379067    -0.07510
N1615       N  0.03045379  0.07252823  0.56983765    -0.63820
N1616       N  0.51213856  0.06454228  0.96510628    -0.06310
N1617       N  0.51435488  0.08196312  0.93941874    -0.64490
N1618       N  0.98935144  0.07421233  0.98230961    -0.07020
N1619       N  0.97576308  0.09852113  0.96910201    -0.64080
N1620       N  0.54517282  0.04855735  0.52705245    -0.05910
N1621       N  0.57000817  0.05642656  0.54134439    -0.64770
Mn1622     Mn  0.97644605  0.05056388  0.52569950     1.10660
C1623       C  0.56049879  0.07114128  0.56799698     0.98210
C1624       C  0.99149471  0.10307365  0.94239903     0.98280
N1625       N  0.52690873  0.46962803  0.93512644    -0.07020
N1626       N  0.53939528  0.45497389  0.91064846    -0.62400
N1627       N  0.56785334  0.48375993  0.49639553    -0.06340
N1628       N  0.59689771  0.48244436  0.50107057    -0.59130
N1629       N  0.55681681  0.45494784  0.49609490    -0.07650
N1630       N  0.57787457  0.43360888  0.50091880    -0.61960
N1631       N  0.53528303  0.49951861  0.93615542    -0.06640
N1632       N  0.55237456  0.00574489  0.91184121    -0.59150
Mn1633     Mn  0.51233342  0.44559862  0.97803942     1.20190
Mn1634     Mn  0.54047217  0.02469656  0.98098832     1.10090
Cl1635     Cl  0.99428396  0.49809432  0.00173386    -0.87120
C1636       C  0.55474658  0.47800438  0.89601192     0.95210
C1637       C  0.60257251  0.45101835  0.50447715     0.95010
N1638       N  0.77880266  0.30265901  0.95500777    -0.07280
N1639       N  0.78775071  0.32688828  0.93789021    -0.59400
N1640       N  0.78048955  0.22550130  0.93565991    -0.06960
N1641       N  0.78655452  0.20020896  0.91796122    -0.61520
N1642       N  0.75738742  0.24102337  0.92449283    -0.06550
N1643       N  0.74708040  0.22657763  0.89928809    -0.59370
N1644       N  0.80188538  0.28720978  0.96653105    -0.06230
N1645       N  0.82684719  0.30075855  0.95732178    -0.61880
C1646       C  0.81767147  0.32578059  0.93999258     0.94900
C1647       C  0.76564700  0.20148859  0.89522819     0.94680
N1648       N  0.77606476  0.17885220  0.52105751    -0.07460
N1649       N  0.77942646  0.14778239  0.52500062    -0.59970
N1650       N  0.81100952  0.24943423  0.53172045    -0.05580
N1651       N  0.83406611  0.26535731  0.54262989    -0.61230
N1652       N  0.79407710  0.24036289  0.55531382    -0.07490
N1653       N  0.80464940  0.25029128  0.58231526    -0.60240
N1654       N  0.79206273  0.18813846  0.99682795    -0.05220
N1655       N  0.80581431  0.16383520  0.98341567    -0.61310
Mn1656     Mn  0.79745382  0.23763014  0.98280170     1.18440
C1657       C  0.79776101  0.13876006  0.50086019     0.96980
C1658       C  0.82938048  0.26593724  0.57433288     0.97650
N1659       N  0.69366554  0.25421037  0.94648351    -0.07510
N1660       N  0.68281616  0.24405897  0.91968843    -0.63820
N1661       N  0.69620558  0.30743020  0.00430163    -0.06310
N1662       N  0.68252947  0.33220931  0.51704080    -0.64490
N1663       N  0.71203590  0.31598508  0.97969352    -0.07020
N1664       N  0.70873863  0.34685947  0.97476502    -0.64080
N1665       N  0.67676117  0.24569415  0.97029204    -0.05910
N1666       N  0.65349240  0.22986663  0.95979270    -0.64770
Mn1667     Mn  0.73532437  0.27938600  0.95108437     1.10660
C1668       C  0.65796597  0.22880668  0.92807707     0.98210
C1669       C  0.69059975  0.35668069  0.99869216     0.98280
N1670       N  0.73031064  0.25319558  0.57758967    -0.07020
N1671       N  0.73984653  0.26654853  0.60375794    -0.62400
N1672       N  0.68590379  0.20831373  0.53544970    -0.06340
N1673       N  0.66082463  0.19550942  0.54538818    -0.59130
N1674       N  0.70887581  0.19226660  0.54647822    -0.07650
N1675       N  0.69968974  0.16846531  0.56405898    -0.61960
N1676       N  0.70835567  0.26997129  0.56561773    -0.06640
N1677       N  0.70284176  0.29545797  0.58316554    -0.59150
Mn1678     Mn  0.75250935  0.21510321  0.55040269     1.20190
Mn1679     Mn  0.69078177  0.25788602  0.51886675     1.10090
Cl1680     Cl  0.74400822  0.24749417  0.00079879    -0.87120
C1681       C  0.72235551  0.29262202  0.60709152     0.95210
C1682       C  0.66974853  0.17038955  0.56271677     0.95010
N1683       N  0.95750444  0.30504156  0.79712357    -0.07280
N1684       N  0.94834969  0.32895402  0.81523154    -0.59400
N1685       N  0.95326745  0.22778910  0.81475350    -0.06960
N1686       N  0.94627701  0.20230566  0.83105593    -0.61520
N1687       N  0.97543136  0.24266021  0.82811761    -0.06550
N1688       N  0.98361876  0.22801082  0.85403451    -0.59370
N1689       N  0.93457258  0.29080357  0.78430931    -0.06230
N1690       N  0.90953930  0.30490997  0.79372534    -0.61880
C1691       C  0.91850661  0.32899689  0.81248246     0.94900
C1692       C  0.96503771  0.20318329  0.85576292     0.94680
N1693       N  0.96024011  0.18076640  0.72968581    -0.07460
N1694       N  0.95664915  0.14971758  0.72583557    -0.59970
N1695       N  0.92730614  0.25314123  0.71789451    -0.05580
N1696       N  0.90442332  0.26889629  0.70578329    -0.61230
N1697       N  0.94509515  0.24297119  0.69514961    -0.07490
N1698       N  0.93531691  0.25200168  0.66756001    -0.60240
N1699       N  0.94330348  0.19127467  0.75300772    -0.05220
N1700       N  0.92867321  0.16791489  0.76594118    -0.61310
Mn1701     Mn  0.93862049  0.24099168  0.76726721     1.18440
C1702       C  0.93713020  0.14209329  0.74914185     0.96980
C1703       C  0.91014636  0.26825334  0.67424381     0.97650
N1704       N  0.54069224  0.25195030  0.80941044    -0.07510
N1705       N  0.55053513  0.24230546  0.83677373    -0.63820
N1706       N  0.54237238  0.30511029  0.75211320    -0.06310
N1707       N  0.55727245  0.32914853  0.74058954    -0.64490
N1708       N  0.52568689  0.31448356  0.77611064    -0.07020
N1709       N  0.52966289  0.34508535  0.78191401    -0.64080
N1710       N  0.55859242  0.24255792  0.78642261    -0.05910
N1711       N  0.58153184  0.22662837  0.79814182    -0.64770
Mn1712     Mn  0.50000180  0.27940322  0.80299249     1.10660
C1713       C  0.57581831  0.22641716  0.82966392     0.98210
C1714       C  0.54901479  0.35394892  0.75907505     0.98280
N1715       N  0.50989727  0.25291569  0.67683103    -0.07020
N1716       N  0.50075186  0.26765165  0.65137830    -0.62400
N1717       N  0.55173936  0.20538055  0.71989749    -0.06340
N1718       N  0.57687473  0.19176055  0.71005520    -0.59130
N1719       N  0.52884967  0.19063520  0.70754063    -0.07650
N1720       N  0.03820473  0.16692031  0.68922745    -0.61960
N1721       N  0.53235563  0.26795858  0.68947733    -0.06640
N1722       N  0.53901542  0.29323876  0.67264195    -0.59150
Mn1723     Mn  0.98590586  0.21578250  0.70204001     1.20190
Mn1724     Mn  0.54730861  0.25519539  0.73710316     1.10090
Cl1725     Cl  0.99297653  0.24785033  0.75232898    -0.87120
C1726       C  0.51918545  0.29253241  0.64880734     0.95210
C1727       C  0.56811099  0.16748209  0.69142672     0.94650
N1728       N  0.80507018  0.04187924  0.74473093    -0.07280
N1729       N  0.82476433  0.06435723  0.74890970    -0.59400
N1730       N  0.78953826  0.49048165  0.68796068    -0.06960
N1731       N  0.81109417  0.48366947  0.66794682    -0.61520
N1732       N  0.77987677  0.01985513  0.68359062    -0.06550
N1733       N  0.79602185  0.03341306  0.66138348    -0.59370
N1734       N  0.81739471  0.51366911  0.74850964    -0.06230
N1735       N  0.84599785  0.51646504  0.75489682    -0.61880
C1736       C  0.84999466  0.04826580  0.75563226     0.94900
C1737       C  0.81556532  0.01061634  0.65194946     0.94680
N1738       N  0.74462620  0.41925449  0.73752094    -0.07460
N1739       N  0.73243289  0.39421614  0.72427477    -0.59970
N1740       N  0.79614584  0.45145618  0.78321631    -0.05580
N1741       N  0.82068038  0.44428724  0.79858363    -0.61230
N1742       N  0.77255763  0.44274697  0.79935950    -0.07490
N1743       N  0.78068182  0.42922432  0.82603274    -0.60240
N1744       N  0.76770187  0.42851872  0.72101336    -0.05220
N1745       N  0.77150422  0.41021435  0.69584784    -0.61310
Mn1746     Mn  0.79293385  0.47049072  0.73519008     1.18440
C1747       C  0.74945185  0.38882390  0.69842324     0.96980
C1748       C  0.81071945  0.43082348  0.82531648     0.97650
N1749       N  0.71631247  0.05192808  0.70214658    -0.07510
N1750       N  0.70805868  0.06659443  0.67608936    -0.63820
N1751       N  0.72122285  0.06570671  0.78005556    -0.06310
N1752       N  0.71746194  0.08397486  0.80526422    -0.64490
N1753       N  0.74503319  0.07415907  0.76432988    -0.07020
N1754       N  0.75816609  0.09808132  0.77851267    -0.64080
N1755       N  0.69275699  0.04275904  0.71805942    -0.05910
N1756       N  0.66815525  0.05079509  0.70323378    -0.64770
Mn1757     Mn  0.76121423  0.04749286  0.72326455     1.10660
C1758       C  0.67798122  0.06523680  0.67698139     0.98210
C1759       C  0.74069640  0.10408153  0.80390673     0.98280
N1760       N  0.70822368  0.47419983  0.81753883    -0.07020
N1761       N  0.69068674  0.46105886  0.83888271    -0.62400
N1762       N  0.67171016  0.47985930  0.75266988    -0.06340
N1763       N  0.64274845  0.47687699  0.74836732    -0.59130
N1764       N  0.68411379  0.45170477  0.75683328    -0.07650
N1765       N  0.66406320  0.42927488  0.75537189    -0.61960
N1766       N  0.69962782  0.50392157  0.81307247    -0.06640
N1767       N  0.67787319  0.51150457  0.83251756    -0.59150
Mn1768     Mn  0.72781320  0.44644484  0.77822023     1.20190
Mn1769     Mn  0.69612494  0.02349384  0.76581240     1.10090
Cl1770     Cl  0.74449698  0.49696285  0.75057286    -0.87120
C1771       C  0.67170362  0.48463701  0.84788191     0.95210
C1772       C  0.63854276  0.44510846  0.74949515     0.95010
C1773       C  0.91832351  0.09008470  0.72826155    -0.14500
C1774       C  0.92207483  0.11143766  0.75342528     0.07650
C1775       C  0.90617153  0.10667630  0.78163531    -0.14500
C1776       C  0.88443398  0.08347820  0.78344515    -0.14500
C1777       C  0.87873561  0.06412137  0.75738250     0.07650
C1778       C  0.89662890  0.06650461  0.73024670    -0.14500
H1779       H  0.93010618  0.09338737  0.70622674     0.11630
H1780       H  0.90878063  0.12266179  0.80151781     0.11630
H1781       H  0.87053333  0.08227655  0.80434320     0.11630
H1782       H  0.89200089  0.05211880  0.70966231     0.11630
C1783       C  0.57880716  0.39567028  0.78519571    -0.14500
C1784       C  0.56480429  0.38428017  0.75805753     0.07650
C1785       C  0.57163530  0.39773847  0.72874436    -0.14500
C1786       C  0.59379927  0.42060665  0.72623340    -0.14500
C1787       C  0.60964033  0.42978509  0.75295203     0.07650
C1788       C  0.60137746  0.41804596  0.78258767    -0.14500
H1789       H  0.57433925  0.38510464  0.80790290     0.11630
H1790       H  0.56128949  0.38890358  0.70751367     0.11630
H1791       H  0.60027751  0.42901201  0.70317511     0.11630
H1792       H  0.61382587  0.42452049  0.80338285     0.11630
C1793       C  0.72837641  0.31022882  0.66256290    -0.14500
C1794       C  0.72805671  0.31753621  0.63044764     0.07650
C1795       C  0.73550806  0.34816023  0.62060211    -0.14500
C1796       C  0.74351136  0.37121495  0.64273695    -0.14500
C1797       C  0.74310325  0.36412472  0.67495271     0.07650
C1798       C  0.73521012  0.33362291  0.68476723    -0.14500
H1799       H  0.72304354  0.28654712  0.67041440     0.11630
H1800       H  0.73582793  0.35394662  0.59578486     0.11630
H1801       H  0.74935344  0.39473370  0.63480971     0.11630
H1802       H  0.73479093  0.32781189  0.70956958     0.11630
C1803       C  0.72496207  0.13960405  0.84851021    -0.14500
C1804       C  0.74729274  0.12841939  0.82789191     0.07650
C1805       C  0.77609515  0.14080248  0.83020359    -0.14500
C1806       C  0.78244736  0.16403305  0.85279895    -0.14500
C1807       C  0.75986927  0.17579945  0.87266916     0.07650
C1808       C  0.73111809  0.16347681  0.87043561    -0.14500
H1809       H  0.70263760  0.13039043  0.84722904     0.11630
H1810       H  0.79374111  0.13239256  0.81466196     0.11630
H1811       H  0.80471032  0.17338685  0.85422738     0.11630
H1812       H  0.71347276  0.17223412  0.88581722     0.11630
C1813       C  0.60654037  0.21639745  0.91079940    -0.14500
C1814       C  0.63700948  0.21729632  0.90425610     0.07650
C1815       C  0.64701882  0.21327829  0.87293716    -0.14500
C1816       C  0.62682387  0.21269019  0.84815604    -0.14500
C1817       C  0.59641475  0.21613611  0.85449278     0.07650
C1818       C  0.58633256  0.21581037  0.88600853    -0.14500
H1819       H  0.59831378  0.21921195  0.93470812     0.11630
H1820       H  0.67054958  0.21333753  0.86737965     0.11630
H1821       H  0.63512458  0.21256977  0.82415203     0.11630
H1822       H  0.56283625  0.21786304  0.89150036     0.11630
C1823       C  0.88056311  0.27795981  0.59251828    -0.14500
C1824       C  0.85000578  0.27739007  0.59852087     0.07650
C1825       C  0.83954911  0.28151441  0.62968287    -0.14500
C1826       C  0.85937619  0.28204967  0.65483315    -0.14500
C1827       C  0.88985712  0.27836653  0.64902847     0.07650
C1828       C  0.90037598  0.27836349  0.61765568    -0.14500
H1829       H  0.88913716  0.27495045  0.56876465     0.11630
H1830       H  0.81592876  0.28164938  0.63481466     0.11630
H1831       H  0.85072711  0.28234270  0.67870307     0.11630
H1832       H  0.92388394  0.27586432  0.61251797     0.11630
C1833       C  0.83889252  0.06326766  0.02101520    -0.14500
C1834       C  0.85712509  0.06010292  0.99414007     0.07650
C1835       C  0.85103716  0.07840077  0.96761155    -0.14500
C1836       C  0.82878567  0.10167270  0.96883119    -0.14500
C1837       C  0.81283690  0.10761513  0.99693125     0.07650
C1838       C  0.81676395  0.08702273  0.02245511    -0.14500
H1839       H  0.84371399  0.04958559  0.04188946     0.11630
H1840       H  0.86512840  0.07650404  0.94685946     0.11630
H1841       H  0.82598180  0.11698725  0.94865613     0.11630
H1842       H  0.80485972  0.09116292  0.54438858     0.11630
C1843       C  0.64675000  0.42941961  0.97614928    -0.14500
C1844       C  0.63213149  0.43612542  0.50483002     0.07650
C1845       C  0.64144993  0.42088959  0.53223154    -0.14500
C1846       C  0.66330896  0.39714656  0.53058543    -0.14500
C1847       C  0.67584494  0.38804256  0.00142533     0.07650
C1848       C  0.66869275  0.40554020  0.97445456    -0.14500
H1849       H  0.63923562  0.44047848  0.95461744     0.11630
H1850       H  0.63001400  0.42538290  0.55438966     0.11630
H1851       H  0.66855581  0.38401875  0.55171090     0.11630
H1852       H  0.67779730  0.39872435  0.95166659     0.11630
C1853       C  0.58896959  0.49578908  0.85538237    -0.14500
C1854       C  0.58120362  0.47212968  0.87656494     0.07650
C1855       C  0.60291358  0.44994215  0.88626378    -0.14500
C1856       C  0.63265573  0.45320545  0.87670581    -0.14500
C1857       C  0.64075632  0.47893664  0.85784562     0.07650
C1858       C  0.61834619  0.49926305  0.84623478    -0.14500
H1859       H  0.57266689  0.01332707  0.84801506     0.11630
H1860       H  0.59741812  0.43190940  0.90332464     0.11630
H1861       H  0.64938647  0.43676607  0.88525773     0.11630
H1862       H  0.62349040  0.01865881  0.83060503     0.11630
C1863       C  0.88185741  0.04169561  0.60710230    -0.14500
C1864       C  0.90510788  0.02650927  0.62344972     0.07650
C1865       C  0.89887897  0.00963843  0.65071959    -0.14500
C1866       C  0.86960775  0.00579593  0.66029119    -0.14500
C1867       C  0.84603809  0.01833348  0.64241677     0.07650
C1868       C  0.85229091  0.03774684  0.61668968    -0.14500
H1869       H  0.88637820  0.05412269  0.58536593     0.11630
H1870       H  0.91646642  0.99740562  0.66321358     0.11630
H1871       H  0.86538856  0.99179555  0.68110381     0.11630
H1872       H  0.83443692  0.04814796  0.60308307     0.11630
C1873       C  0.53141510  0.36344134  0.59617753    -0.14500
C1874       C  0.00251756  0.36888755  0.58500521     0.07650
C1875       C  0.97940443  0.34931409  0.59487494    -0.14500
C1876       C  0.98517693  0.32412895  0.61514371    -0.14500
C1877       C  0.51398308  0.31869459  0.62662647     0.07650
C1878       C  0.53702350  0.33881168  0.61738303    -0.14500
H1879       H  0.54949793  0.37845153  0.58876313     0.11630
H1880       H  0.95701814  0.35307483  0.58633331     0.11630
H1881       H  0.96696771  0.30921621  0.62230064     0.11630
H1882       H  0.55934288  0.33514822  0.62612040     0.11630
C1883       C  0.98737190  0.12316929  0.88737219    -0.14500
C1884       C  0.98444000  0.12838129  0.91991487     0.07650
C1885       C  0.97385426  0.15791557  0.93112332    -0.14500
C1886       C  0.96709668  0.18226140  0.91012336    -0.14500
C1887       C  0.96966325  0.17692399  0.87764998     0.07650
C1888       C  0.97955696  0.14720324  0.86630408    -0.14500
H1889       H  0.99530391  0.10046185  0.87831127     0.11630
H1890       H  0.97148041  0.16237279  0.95618028     0.11630
H1891       H  0.95988848  0.20524152  0.91917065     0.11630
H1892       H  0.98209267  0.14297643  0.84121979     0.11630
C1893       C  0.64063510  0.09735751  0.64088574    -0.14430
C1894       C  0.65839787  0.08190204  0.65583335    -0.15990
C1895       C  0.60263623  0.13722585  0.64931252    -0.14430
C1896       C  0.58770197  0.15078822  0.66940031    -0.15990
C1897       C  0.65036673  0.15331443  0.58390039    -0.14430
C1898       C  0.63551808  0.13888060  0.60288818    -0.15990
C1899       C  0.59773406  0.09956113  0.60687214    -0.14430
C1900       C  0.58022598  0.08594809  0.59017148    -0.15990
C1901       C  0.89049640  0.39706009  0.89685925    -0.14430
C1902       C  0.90841439  0.41031324  0.91332878    -0.15990
C1903       C  0.85198270  0.35844318  0.90094627    -0.14430
C1904       C  0.83705225  0.34363032  0.91952869    -0.15990
C1905       C  0.83011335  0.41523095  0.84734391    -0.14430
C1906       C  0.84752330  0.40007933  0.86296933    -0.15990
C1907       C  0.89907023  0.34587128  0.83434821    -0.14430
C1908       C  0.88455867  0.35962831  0.85455755    -0.15990
C1909       C  0.86864139  0.87871294  0.37886852    -0.03640
C1910       C  0.61911303  0.61840628  0.12504661    -0.03640
N1911       N  0.93197005  0.54134607  0.50712073    -0.07280
N1912       N  0.91117867  0.56266431  0.50110267    -0.59400
N1913       N  0.95264709  0.99668973  0.06713668    -0.06960
N1914       N  0.93465757  0.99117382  0.09093880    -0.61520
N1915       N  0.96172289  0.52633801  0.06827189    -0.06550
N1916       N  0.94900276  0.54142860  0.09230143    -0.59370
N1917       N  0.92086602  0.51256425  0.50655811    -0.06230
N1918       N  0.89204303  0.51385090  0.50063466    -0.61880
C1919       C  0.88658162  0.54523680  0.49671551     0.94900
C1920       C  0.93262101  0.51905133  0.10656487     0.94680
N1921       N  0.99958216  0.92269991  0.02213293    -0.07460
N1922       N  0.01356917  0.89929260  0.03651354    -0.59970
N1923       N  0.94345202  0.94766268  0.47634945    -0.05580
N1924       N  0.91865605  0.93989579  0.46196992    -0.61230
N1925       N  0.96680616  0.93800583  0.45988766    -0.07490
N1926       N  0.95827992  0.92332691  0.43384861    -0.60240
N1927       N  0.97576046  0.93161688  0.03812727    -0.05220
N1928       N  0.97268239  0.91403309  0.06354113    -0.61310
Mn1929     Mn  0.94781441  0.97153867  0.02219506     1.18440
C1930       C  0.99654241  0.89415893  0.06223349     0.96980
C1931       C  0.92821822  0.92495546  0.43549742     0.97650
N1932       N  0.02188566  0.55792017  0.04379067    -0.07510
N1933       N  0.03045379  0.57252824  0.06983765    -0.63820
N1934       N  0.51213856  0.56454227  0.46510629    -0.06310
N1935       N  0.51435488  0.58196311  0.43941874    -0.64490
N1936       N  0.98935143  0.57421232  0.48230961    -0.07020
N1937       N  0.97576307  0.59852112  0.46910201    -0.64080
N1938       N  0.54517282  0.54855736  0.02705245    -0.05910
N1939       N  0.57000818  0.55642657  0.04134439    -0.64770
Mn1940     Mn  0.97644605  0.55056389  0.02569950     1.10660
C1941       C  0.56049879  0.57114129  0.06799698     0.98210
C1942       C  0.99149471  0.60307364  0.44239904     0.98280
N1943       N  0.52690872  0.96962802  0.43512644    -0.07020
N1944       N  0.53939527  0.95497388  0.41064845    -0.62400
N1945       N  0.56785334  0.98375994  0.99639553    -0.06340
N1946       N  0.59689772  0.98244437  0.00107057    -0.59130
N1947       N  0.55681682  0.95494785  0.99609491    -0.07650
N1948       N  0.57787458  0.93360889  0.00091881    -0.61960
N1949       N  0.53528303  0.99951861  0.43615542    -0.06640
N1950       N  0.55237455  0.50574489  0.41184121    -0.59150
Mn1951     Mn  0.51233341  0.94559862  0.47803942     1.20190
Mn1952     Mn  0.54047217  0.52469655  0.48098832     1.10090
Cl1953     Cl  0.99428395  0.99809431  0.50173386    -0.87120
C1954       C  0.55474658  0.97800438  0.39601192     0.95210
C1955       C  0.60257252  0.95101836  0.00447716     0.95010
N1956       N  0.77880265  0.80265901  0.45500778    -0.07280
N1957       N  0.78775070  0.82688828  0.43789021    -0.59400
N1958       N  0.78048954  0.72550130  0.43565991    -0.06960
N1959       N  0.78655451  0.70020896  0.41796123    -0.61520
N1960       N  0.75738742  0.74102337  0.42449284    -0.06550
N1961       N  0.74708039  0.72657763  0.39928810    -0.59370
N1962       N  0.80188537  0.78720978  0.46653106    -0.06230
N1963       N  0.82684719  0.80075855  0.45732179    -0.61880
C1964       C  0.81767146  0.82578059  0.43999259     0.94900
C1965       C  0.76564700  0.70148858  0.39522819     0.94680
N1966       N  0.77606477  0.67885221  0.02105751    -0.07460
N1967       N  0.77942646  0.64778240  0.02500061    -0.59970
N1968       N  0.81100953  0.74943424  0.03172045    -0.05580
N1969       N  0.83406611  0.76535732  0.04262989    -0.61230
N1970       N  0.79407710  0.74036289  0.05531382    -0.07490
N1971       N  0.80464940  0.75029129  0.08231526    -0.60240
N1972       N  0.79206273  0.68813846  0.49682794    -0.05220
N1973       N  0.80581431  0.66383520  0.48341566    -0.61310
Mn1974     Mn  0.79745382  0.73763014  0.48280171     1.18440
C1975       C  0.79776101  0.63876007  0.00086019     0.96980
C1976       C  0.82938048  0.76593725  0.07433288     0.97650
N1977       N  0.69366553  0.75421037  0.44648351    -0.07510
N1978       N  0.68281616  0.74405896  0.41968844    -0.63820
N1979       N  0.69620558  0.80743019  0.50430164    -0.06310
N1980       N  0.68252947  0.83220932  0.01704080    -0.64490
N1981       N  0.71203589  0.81598508  0.47969354    -0.07020
N1982       N  0.70873863  0.84685947  0.47476504    -0.64080
N1983       N  0.67676117  0.74569415  0.47029205    -0.05910
N1984       N  0.65349239  0.72986662  0.45979270    -0.64770
Mn1985     Mn  0.73532436  0.77938600  0.45108438     1.10660
C1986       C  0.65796596  0.72880667  0.42807708     0.98210
C1987       C  0.69059975  0.85668068  0.49869217     0.98280
N1988       N  0.73031064  0.75319558  0.07758967    -0.07020
N1989       N  0.73984653  0.76654853  0.10375794    -0.62400
N1990       N  0.68590380  0.70831374  0.03544969    -0.06340
N1991       N  0.66082464  0.69550943  0.04538818    -0.59130
N1992       N  0.70887581  0.69226661  0.04647822    -0.07650
N1993       N  0.69968974  0.66846532  0.06405898    -0.61960
N1994       N  0.70835567  0.76997130  0.06561773    -0.06640
N1995       N  0.70284176  0.79545797  0.08316554    -0.59150
Mn1996     Mn  0.75250935  0.71510322  0.05040269     1.20190
Mn1997     Mn  0.69078177  0.75788603  0.01886675     1.10090
Cl1998     Cl  0.74400822  0.74749417  0.50079879    -0.87120
C1999       C  0.72235551  0.79262202  0.10709152     0.95210
C2000       C  0.66974853  0.67038956  0.06271676     0.95010
N2001       N  0.95750444  0.80504156  0.29712357    -0.07280
N2002       N  0.94834969  0.82895402  0.31523154    -0.59400
N2003       N  0.95326745  0.72778910  0.31475350    -0.06960
N2004       N  0.94627701  0.70230565  0.33105594    -0.61520
N2005       N  0.97543136  0.74266020  0.32811762    -0.06550
N2006       N  0.98361875  0.72801081  0.35403451    -0.59370
N2007       N  0.93457257  0.79080357  0.28430932    -0.06230
N2008       N  0.90953930  0.80490996  0.29372535    -0.61880
C2009       C  0.91850661  0.82899689  0.31248247     0.94900
C2010       C  0.96503771  0.70318328  0.35576293     0.94680
N2011       N  0.96024011  0.68076640  0.22968581    -0.07460
N2012       N  0.95664915  0.64971758  0.22583557    -0.59970
N2013       N  0.92730614  0.75314123  0.21789451    -0.05580
N2014       N  0.90442332  0.76889629  0.20578329    -0.61230
N2015       N  0.94509516  0.74297119  0.19514962    -0.07490
N2016       N  0.93531691  0.75200168  0.16756002    -0.60240
N2017       N  0.94330348  0.69127466  0.25300772    -0.05220
N2018       N  0.92867321  0.66791489  0.26594118    -0.61310
Mn2019     Mn  0.93862049  0.74099168  0.26726721     1.18440
C2020       C  0.93713020  0.64209329  0.24914184     0.96980
C2021       C  0.91014636  0.76825334  0.17424382     0.97650
N2022       N  0.54069223  0.75195030  0.30941044    -0.07510
N2023       N  0.55053513  0.74230546  0.33677374    -0.63820
N2024       N  0.54237238  0.80511029  0.25211321    -0.06310
N2025       N  0.55727244  0.82914853  0.24058955    -0.64490
N2026       N  0.52568689  0.81448356  0.27611065    -0.07020
N2027       N  0.52966289  0.84508535  0.28191402    -0.64080
N2028       N  0.55859242  0.74255791  0.28642262    -0.05910
N2029       N  0.58153184  0.72662837  0.29814182    -0.64770
Mn2030     Mn  0.50000179  0.77940322  0.30299250     1.10660
C2031       C  0.57581831  0.72641716  0.32966392     0.98210
C2032       C  0.54901479  0.85394892  0.25907506     0.98280
N2033       N  0.50989727  0.75291570  0.17683104    -0.07020
N2034       N  0.50075186  0.76765166  0.15137831    -0.62400
N2035       N  0.55173936  0.70538055  0.21989749    -0.06340
N2036       N  0.57687473  0.69176055  0.21005520    -0.59130
N2037       N  0.52884967  0.69063521  0.20754064    -0.07650
N2038       N  0.03820473  0.66692032  0.18922745    -0.61960
N2039       N  0.53235563  0.76795858  0.18947733    -0.06640
N2040       N  0.53901542  0.79323877  0.17264196    -0.59150
Mn2041     Mn  0.98590586  0.71578250  0.20204001     1.20190
Mn2042     Mn  0.54730861  0.75519539  0.23710317     1.10090
Cl2043     Cl  0.99297653  0.74785033  0.25232898    -0.87120
C2044       C  0.51918545  0.79253242  0.14880735     0.95210
C2045       C  0.56811099  0.66748210  0.19142672     0.94650
N2046       N  0.80507018  0.54187924  0.24473094    -0.07280
N2047       N  0.82476433  0.56435723  0.24890970    -0.59400
N2048       N  0.78953826  0.99048164  0.18796068    -0.06960
N2049       N  0.81109418  0.98366946  0.16794683    -0.61520
N2050       N  0.77987678  0.51985513  0.18359063    -0.06550
N2051       N  0.79602185  0.53341306  0.16138348    -0.59370
N2052       N  0.81739471  0.01366911  0.24850964    -0.06230
N2053       N  0.84599785  0.01646504  0.25489682    -0.61880
C2054       C  0.84999466  0.54826581  0.25563226     0.94900
C2055       C  0.81556532  0.51061634  0.15194946     0.94680
N2056       N  0.74462620  0.91925449  0.23752094    -0.07460
N2057       N  0.73243288  0.89421614  0.22427477    -0.59970
N2058       N  0.79614584  0.95145617  0.28321632    -0.05580
N2059       N  0.82068038  0.94428724  0.29858363    -0.61230
N2060       N  0.77255762  0.94274697  0.29935950    -0.07490
N2061       N  0.78068181  0.92922431  0.32603275    -0.60240
N2062       N  0.76770186  0.92851872  0.22101337    -0.05220
N2063       N  0.77150421  0.91021435  0.19584785    -0.61310
Mn2064     Mn  0.79293385  0.97049072  0.23519009     1.18440
C2065       C  0.74945185  0.88882390  0.19842324     0.96980
C2066       C  0.81071944  0.93082348  0.32531649     0.97650
N2067       N  0.71631247  0.55192808  0.20214658    -0.07510
N2068       N  0.70805869  0.56659444  0.17608936    -0.63820
N2069       N  0.72122284  0.56570671  0.28005556    -0.06310
N2070       N  0.71746193  0.58397486  0.30526422    -0.64490
N2071       N  0.74503319  0.57415907  0.26432988    -0.07020
N2072       N  0.75816609  0.59808132  0.27851268    -0.64080
N2073       N  0.69275699  0.54275904  0.21805942    -0.05910
N2074       N  0.66815525  0.55079510  0.20323378    -0.64770
Mn2075     Mn  0.76121423  0.54749286  0.22326455     1.10660
C2076       C  0.67798123  0.56523681  0.17698139     0.98210
C2077       C  0.74069639  0.60408152  0.30390673     0.98280
N2078       N  0.70822368  0.97419984  0.31753883    -0.07020
N2079       N  0.69068673  0.96105887  0.33888271    -0.62400
N2080       N  0.67171016  0.97985930  0.25266987    -0.06340
N2081       N  0.64274844  0.97687699  0.24836732    -0.59130
N2082       N  0.68411379  0.95170477  0.25683328    -0.07650
N2083       N  0.66406320  0.92927488  0.25537189    -0.61960
N2084       N  0.69962782  0.00392157  0.31307246    -0.06640
N2085       N  0.67787318  0.01150458  0.33251755    -0.59150
Mn2086     Mn  0.72781320  0.94644484  0.27822023     1.20190
Mn2087     Mn  0.69612494  0.52349384  0.26581240     1.10090
Cl2088     Cl  0.74449698  0.99696285  0.25057286    -0.87120
C2089       C  0.67170361  0.98463702  0.34788190     0.95210
C2090       C  0.63854275  0.94510847  0.24949515     0.95010
C2091       C  0.91832351  0.59008470  0.22826154    -0.14500
C2092       C  0.92207483  0.61143766  0.25342528     0.07650
C2093       C  0.90617153  0.60667629  0.28163530    -0.14500
C2094       C  0.88443399  0.58347819  0.28344515    -0.14500
C2095       C  0.87873561  0.56412137  0.25738250     0.07650
C2096       C  0.89662889  0.56650461  0.23024669    -0.14500
H2097       H  0.93010617  0.59338738  0.20622673     0.11630
H2098       H  0.90878065  0.62266178  0.30151781     0.11630
H2099       H  0.87053335  0.58227654  0.30434320     0.11630
H2100       H  0.89200088  0.55211881  0.20966230     0.11630
C2101       C  0.57880716  0.89567029  0.28519572    -0.14500
C2102       C  0.56480429  0.88428017  0.25805754     0.07650
C2103       C  0.57163529  0.89773847  0.22874436    -0.14500
C2104       C  0.59379926  0.92060665  0.22623341    -0.14500
C2105       C  0.60964033  0.92978510  0.25295203     0.07650
C2106       C  0.60137745  0.91804597  0.28258767    -0.14500
H2107       H  0.57433924  0.88510465  0.30790291     0.11630
H2108       H  0.56128948  0.88890357  0.20751368     0.11630
H2109       H  0.60027750  0.92901200  0.20317511     0.11630
H2110       H  0.61382586  0.92452050  0.30338285     0.11630
C2111       C  0.72837639  0.81022883  0.16256290    -0.14500
C2112       C  0.72805670  0.81753621  0.13044764     0.07650
C2113       C  0.73550807  0.84816023  0.12060211    -0.14500
C2114       C  0.74351137  0.87121494  0.14273695    -0.14500
C2115       C  0.74310324  0.86412472  0.17495271     0.07650
C2116       C  0.73521010  0.83362292  0.18476724    -0.14500
H2117       H  0.72304352  0.78654713  0.17041440     0.11630
H2118       H  0.73582795  0.85394661  0.09578486     0.11630
H2119       H  0.74935346  0.89473369  0.13480972     0.11630
H2120       H  0.73479090  0.82781189  0.20956958     0.11630
C2121       C  0.72496205  0.63960409  0.34851017    -0.14500
C2122       C  0.74729274  0.62841938  0.32789191     0.07650
C2123       C  0.77609516  0.64080243  0.33020364    -0.14500
C2124       C  0.78244737  0.66403300  0.35279900    -0.14500
C2125       C  0.75986926  0.67579945  0.37266917     0.07650
C2126       C  0.73111807  0.66347685  0.37043557    -0.14500
H2127       H  0.70263757  0.63039051  0.34722897     0.11630
H2128       H  0.79374113  0.63239247  0.31466204     0.11630
H2129       H  0.80471034  0.67338676  0.35422747     0.11630
H2130       H  0.71347272  0.67223420  0.38581714     0.11630
C2131       C  0.60654037  0.71639745  0.41079941    -0.14500
C2132       C  0.63700948  0.71729632  0.40425611     0.07650
C2133       C  0.64701882  0.71327829  0.37293717    -0.14500
C2134       C  0.62682387  0.71269019  0.34815604    -0.14500
C2135       C  0.59641475  0.71613611  0.35449279     0.07650
C2136       C  0.58633256  0.71581037  0.38600854    -0.14500
H2137       H  0.59831377  0.71921194  0.43470812     0.11630
H2138       H  0.67054958  0.71333753  0.36737965     0.11630
H2139       H  0.63512458  0.71256977  0.32415204     0.11630
H2140       H  0.56283624  0.71786303  0.39150036     0.11630
C2141       C  0.88056311  0.77795981  0.09251828    -0.14500
C2142       C  0.85000578  0.77739008  0.09852087     0.07650
C2143       C  0.83954911  0.78151441  0.12968287    -0.14500
C2144       C  0.85937619  0.78204967  0.15483315    -0.14500
C2145       C  0.88985712  0.77836653  0.14902848     0.07650
C2146       C  0.90037598  0.77836349  0.11765568    -0.14500
H2147       H  0.88913716  0.77495045  0.06876465     0.11630
H2148       H  0.81592876  0.78164938  0.13481466     0.11630
H2149       H  0.85072711  0.78234270  0.17870308     0.11630
H2150       H  0.92388394  0.77586432  0.11251797     0.11630
C2151       C  0.83889249  0.56326763  0.52101515    -0.14500
C2152       C  0.85712509  0.56010291  0.49414003     0.07650
C2153       C  0.85103718  0.57840079  0.46761153    -0.14500
C2154       C  0.82878569  0.60167273  0.46883117    -0.14500
C2155       C  0.81283690  0.60761512  0.49693121     0.07650
C2156       C  0.81676393  0.58702270  0.52245506    -0.14500
H2157       H  0.84371394  0.54958553  0.54188940     0.11630
H2158       H  0.86512844  0.57650408  0.44685945     0.11630
H2159       H  0.82598185  0.61698729  0.44865612     0.11630
H2160       H  0.80485972  0.59116293  0.04438858     0.11630
C2161       C  0.64675000  0.92941961  0.47614929    -0.14500
C2162       C  0.63213150  0.93612543  0.00483002     0.07650
C2163       C  0.64144993  0.92088959  0.03223154    -0.14500
C2164       C  0.66330896  0.89714656  0.03058543    -0.14500
C2165       C  0.67584493  0.88804255  0.50142535     0.07650
C2166       C  0.66869275  0.90554020  0.47445457    -0.14500
H2167       H  0.63923562  0.94047848  0.45461746     0.11630
H2168       H  0.63001400  0.92538290  0.05438966     0.11630
H2169       H  0.66855581  0.88401874  0.05171090     0.11630
H2170       H  0.67779731  0.89872435  0.45166660     0.11630
C2171       C  0.58896958  0.99578908  0.35538237    -0.14500
C2172       C  0.58120361  0.97212968  0.37656494     0.07650
C2173       C  0.60291357  0.94994215  0.38626377    -0.14500
C2174       C  0.63265572  0.95320545  0.37670580    -0.14500
C2175       C  0.64075631  0.97893664  0.35784561     0.07650
C2176       C  0.61834618  0.99926305  0.34623477    -0.14500
H2177       H  0.57266689  0.51332708  0.34801507     0.11630
H2178       H  0.59741811  0.93190940  0.40332463     0.11630
H2179       H  0.64938647  0.93676608  0.38525773     0.11630
H2180       H  0.62349040  0.51865882  0.33060503     0.11630
C2181       C  0.88185741  0.54169562  0.10710231    -0.14500
C2182       C  0.90510789  0.52650928  0.12344973     0.07650
C2183       C  0.89887897  0.50963842  0.15071959    -0.14500
C2184       C  0.86960775  0.50579593  0.16029119    -0.14500
C2185       C  0.84603809  0.51833348  0.14241678     0.07650
C2186       C  0.85229092  0.53774685  0.11668969    -0.14500
H2187       H  0.88637820  0.55412271  0.08536595     0.11630
H2188       H  0.91646642  0.49740560  0.16321358     0.11630
H2189       H  0.86538856  0.49179553  0.18110381     0.11630
H2190       H  0.83443693  0.54814798  0.10308309     0.11630
C2191       C  0.53141511  0.86344135  0.09617754    -0.14500
C2192       C  0.00251757  0.86888757  0.08500522     0.07650
C2193       C  0.97940444  0.84931410  0.09487495    -0.14500
C2194       C  0.98517694  0.82412896  0.11514373    -0.14500
C2195       C  0.51398308  0.81869460  0.12662648     0.07650
C2196       C  0.53702350  0.83881169  0.11738305    -0.14500
H2197       H  0.54949794  0.87845154  0.08876315     0.11630
H2198       H  0.95701815  0.85307484  0.08633332     0.11630
H2199       H  0.96696772  0.80921622  0.12230065     0.11630
H2200       H  0.55934288  0.83514823  0.12612042     0.11630
C2201       C  0.98737195  0.62316931  0.38737219    -0.14500
C2202       C  0.98443999  0.62838128  0.41991488     0.07650
C2203       C  0.97385420  0.65791554  0.43112332    -0.14500
C2204       C  0.96709662  0.68226138  0.41012336    -0.14500
C2205       C  0.96966324  0.67692398  0.37764998     0.07650
C2206       C  0.97955701  0.64720325  0.36630408    -0.14500
H2207       H  0.99530399  0.60046187  0.37831128     0.11630
H2208       H  0.97148031  0.66237275  0.45618028     0.11630
H2209       H  0.95988838  0.70524148  0.41917065     0.11630
H2210       H  0.98209277  0.64297645  0.34121980     0.11630
C2211       C  0.64063511  0.59735752  0.14088574    -0.14430
C2212       C  0.65839788  0.58190205  0.15583335    -0.15990
C2213       C  0.60263624  0.63722586  0.14931252    -0.14430
C2214       C  0.58770198  0.65078822  0.16940031    -0.15990
C2215       C  0.65036674  0.65331444  0.08390039    -0.14430
C2216       C  0.63551808  0.63888061  0.10288818    -0.15990
C2217       C  0.59773407  0.59956114  0.10687214    -0.14430
C2218       C  0.58022599  0.58594810  0.09017148    -0.15990
C2219       C  0.89049639  0.89706008  0.39685925    -0.14430
C2220       C  0.90841438  0.91031323  0.41332878    -0.15990
C2221       C  0.85198270  0.85844318  0.40094627    -0.14430
C2222       C  0.83705225  0.84363032  0.41952870    -0.15990
C2223       C  0.83011334  0.91523095  0.34734391    -0.14430
C2224       C  0.84752329  0.90007933  0.36296933    -0.15990
C2225       C  0.89907023  0.84587127  0.33434822    -0.14430
C2226       C  0.88455866  0.85962830  0.35455755    -0.15990
C2227       C  0.86864140  0.87871295  0.87886853    -0.03640
C2228       C  0.61911303  0.61840627  0.62504661    -0.03640
N2229       N  0.93197006  0.54134608  0.00712073    -0.07280
N2230       N  0.91117868  0.56266433  0.00110268    -0.59400
N2231       N  0.95264708  0.99668972  0.56713668    -0.06960
N2232       N  0.93465755  0.99117381  0.59093879    -0.61520
N2233       N  0.96172289  0.52633800  0.56827188    -0.06550
N2234       N  0.94900275  0.54142858  0.59230142    -0.59370
N2235       N  0.92086603  0.51256426  0.00655811    -0.06230
N2236       N  0.89204304  0.51385091  0.00063467    -0.61880
C2237       C  0.88658163  0.54523681  0.99671552     0.94900
C2238       C  0.93262100  0.51905132  0.60656486     0.94680
N2239       N  0.99958215  0.92269990  0.52213292    -0.07460
N2240       N  0.01356916  0.89929258  0.53651353    -0.59970
N2241       N  0.94345203  0.94766268  0.97634945    -0.05580
N2242       N  0.91865606  0.93989579  0.96196993    -0.61230
N2243       N  0.96680617  0.93800584  0.95988766    -0.07490
N2244       N  0.95827993  0.92332692  0.93384862    -0.60240
N2245       N  0.97576045  0.93161687  0.53812726    -0.05220
N2246       N  0.97268238  0.91403308  0.56354112    -0.61310
Mn2247     Mn  0.94781440  0.97153865  0.52219505     1.18440
C2248       C  0.99654240  0.89415891  0.56223348     0.96980
C2249       C  0.92821823  0.92495547  0.93549743     0.97650
N2250       N  0.02188566  0.55792017  0.54379067    -0.07510
N2251       N  0.03045378  0.57252823  0.56983765    -0.63820
N2252       N  0.51213856  0.56454228  0.96510629    -0.06310
N2253       N  0.51435489  0.58196311  0.93941874    -0.64490
N2254       N  0.98935144  0.57421232  0.98230961    -0.07020
N2255       N  0.97576308  0.59852113  0.96910201    -0.64080
N2256       N  0.54517282  0.54855735  0.52705245    -0.05910
N2257       N  0.57000817  0.55642657  0.54134439    -0.64770
Mn2258     Mn  0.97644604  0.55056388  0.52569949     1.10660
C2259       C  0.56049878  0.57114129  0.56799698     0.98210
C2260       C  0.99149472  0.60307365  0.94239904     0.98280
N2261       N  0.52690873  0.96962803  0.93512644    -0.07020
N2262       N  0.53939528  0.95497389  0.91064846    -0.62400
N2263       N  0.56785334  0.98375993  0.49639553    -0.06340
N2264       N  0.59689771  0.98244436  0.50107057    -0.59130
N2265       N  0.55681681  0.95494783  0.49609490    -0.07650
N2266       N  0.57787457  0.93360888  0.50091881    -0.61960
N2267       N  0.53528303  0.99951861  0.93615542    -0.06640
N2268       N  0.55237456  0.50574489  0.91184122    -0.59150
Mn2269     Mn  0.51233342  0.94559863  0.97803943     1.20190
Mn2270     Mn  0.54047217  0.52469655  0.98098833     1.10090
Cl2271     Cl  0.99428396  0.99809432  0.00173386    -0.87120
C2272       C  0.55474659  0.97800438  0.89601192     0.95210
C2273       C  0.60257251  0.95101835  0.50447715     0.95010
N2274       N  0.77880265  0.80265901  0.95500778    -0.07280
N2275       N  0.78775070  0.82688829  0.93789021    -0.59400
N2276       N  0.78048954  0.72550131  0.93565990    -0.06960
N2277       N  0.78655452  0.70020897  0.91796122    -0.61520
N2278       N  0.75738742  0.74102338  0.92449283    -0.06550
N2279       N  0.74708040  0.72657764  0.89928809    -0.59370
N2280       N  0.80188537  0.78720979  0.96653106    -0.06230
N2281       N  0.82684719  0.80075856  0.95732178    -0.61880
C2282       C  0.81767146  0.82578060  0.93999258     0.94900
C2283       C  0.76564700  0.70148859  0.89522819     0.94680
N2284       N  0.77606477  0.67885220  0.52105751    -0.07460
N2285       N  0.77942646  0.64778239  0.52500061    -0.59970
N2286       N  0.81100953  0.74943423  0.53172045    -0.05580
N2287       N  0.83406611  0.76535731  0.54262989    -0.61230
N2288       N  0.79407710  0.74036288  0.55531382    -0.07490
N2289       N  0.80464940  0.75029128  0.58231526    -0.60240
N2290       N  0.79206273  0.68813847  0.99682794    -0.05220
N2291       N  0.80581431  0.66383521  0.98341566    -0.61310
Mn2292     Mn  0.79745382  0.73763015  0.98280170     1.18440
C2293       C  0.79776101  0.63876006  0.50086019     0.96980
C2294       C  0.82938048  0.76593724  0.57433289     0.97650
N2295       N  0.69366553  0.75421037  0.94648351    -0.07510
N2296       N  0.68281616  0.74405897  0.91968844    -0.63820
N2297       N  0.69620558  0.80743020  0.00430164    -0.06310
N2298       N  0.68252947  0.83220931  0.51704080    -0.64490
N2299       N  0.71203589  0.81598509  0.97969353    -0.07020
N2300       N  0.70873863  0.84685948  0.97476503    -0.64080
N2301       N  0.67676117  0.74569415  0.97029204    -0.05910
N2302       N  0.65349240  0.72986663  0.95979270    -0.64770
Mn2303     Mn  0.73532436  0.77938601  0.95108437     1.10660
C2304       C  0.65796597  0.72880668  0.92807707     0.98210
C2305       C  0.69059975  0.85668068  0.99869217     0.98280
N2306       N  0.73031064  0.75319557  0.57758968    -0.07020
N2307       N  0.73984654  0.76654852  0.60375794    -0.62400
N2308       N  0.68590380  0.70831373  0.53544970    -0.06340
N2309       N  0.66082463  0.69550942  0.54538819    -0.59130
N2310       N  0.70887581  0.69226660  0.54647822    -0.07650
N2311       N  0.69968974  0.66846531  0.56405898    -0.61960
N2312       N  0.70835567  0.76997129  0.56561773    -0.06640
N2313       N  0.70284177  0.79545796  0.58316555    -0.59150
Mn2314     Mn  0.75250935  0.71510321  0.55040269     1.20190
Mn2315     Mn  0.69078177  0.75788602  0.51886676     1.10090
Cl2316     Cl  0.74400822  0.74749417  0.00079879    -0.87120
C2317       C  0.72235552  0.79262201  0.60709152     0.95210
C2318       C  0.66974853  0.67038955  0.56271677     0.95010
N2319       N  0.95750444  0.80504156  0.79712357    -0.07280
N2320       N  0.94834969  0.82895402  0.81523154    -0.59400
N2321       N  0.95326745  0.72778910  0.81475350    -0.06960
N2322       N  0.94627701  0.70230566  0.83105594    -0.61520
N2323       N  0.97543136  0.74266021  0.82811762    -0.06550
N2324       N  0.98361876  0.72801082  0.85403451    -0.59370
N2325       N  0.93457258  0.79080357  0.78430932    -0.06230
N2326       N  0.90953930  0.80490997  0.79372535    -0.61880
C2327       C  0.91850661  0.82899689  0.81248247     0.94900
C2328       C  0.96503772  0.70318329  0.85576293     0.94680
N2329       N  0.96024011  0.68076639  0.72968582    -0.07460
N2330       N  0.95664915  0.64971758  0.72583558    -0.59970
N2331       N  0.92730614  0.75314123  0.71789452    -0.05580
N2332       N  0.90442332  0.76889629  0.70578329    -0.61230
N2333       N  0.94509515  0.74297118  0.69514962    -0.07490
N2334       N  0.93531691  0.75200168  0.66756002    -0.60240
N2335       N  0.94330348  0.69127466  0.75300773    -0.05220
N2336       N  0.92867321  0.66791489  0.76594119    -0.61310
Mn2337     Mn  0.93862049  0.74099168  0.76726722     1.18440
C2338       C  0.93713020  0.64209329  0.74914185     0.96980
C2339       C  0.91014636  0.76825333  0.67424382     0.97650
N2340       N  0.54069224  0.75195030  0.80941044    -0.07510
N2341       N  0.55053513  0.74230546  0.83677373    -0.63820
N2342       N  0.54237238  0.80511029  0.75211320    -0.06310
N2343       N  0.55727244  0.82914853  0.74058954    -0.64490
N2344       N  0.52568689  0.81448356  0.77611064    -0.07020
N2345       N  0.52966289  0.84508535  0.78191401    -0.64080
N2346       N  0.55859242  0.74255791  0.78642262    -0.05910
N2347       N  0.58153184  0.72662837  0.79814182    -0.64770
Mn2348     Mn  0.50000180  0.77940322  0.80299249     1.10660
C2349       C  0.57581831  0.72641716  0.82966392     0.98210
C2350       C  0.54901479  0.85394892  0.75907506     0.98280
N2351       N  0.50989727  0.75291569  0.67683103    -0.07020
N2352       N  0.50075186  0.76765165  0.65137830    -0.62400
N2353       N  0.55173936  0.70538054  0.71989749    -0.06340
N2354       N  0.57687473  0.69176055  0.71005520    -0.59130
N2355       N  0.52884967  0.69063520  0.70754064    -0.07650
N2356       N  0.03820472  0.66692031  0.68922746    -0.61960
N2357       N  0.53235563  0.76795858  0.68947733    -0.06640
N2358       N  0.53901542  0.79323876  0.67264196    -0.59150
Mn2359     Mn  0.98590586  0.71578250  0.70204002     1.20190
Mn2360     Mn  0.54730861  0.75519539  0.73710317     1.10090
Cl2361     Cl  0.99297653  0.74785033  0.75232898    -0.87120
C2362       C  0.51918545  0.79253240  0.64880735     0.95210
C2363       C  0.56811099  0.66748209  0.69142672     0.94650
N2364       N  0.80507018  0.54187924  0.74473093    -0.07280
N2365       N  0.82476433  0.56435723  0.74890971    -0.59400
N2366       N  0.78953826  0.99048164  0.68796068    -0.06960
N2367       N  0.81109418  0.98366946  0.66794682    -0.61520
N2368       N  0.77987677  0.51985513  0.68359062    -0.06550
N2369       N  0.79602184  0.53341306  0.66138348    -0.59370
N2370       N  0.81739471  0.01366911  0.74850964    -0.06230
N2371       N  0.84599785  0.01646504  0.75489682    -0.61880
C2372       C  0.84999465  0.54826580  0.75563227     0.94900
C2373       C  0.81556531  0.51061635  0.65194945     0.94680
N2374       N  0.74462621  0.91925449  0.73752094    -0.07460
N2375       N  0.73243289  0.89421614  0.72427478    -0.59970
N2376       N  0.79614585  0.95145618  0.78321631    -0.05580
N2377       N  0.82068039  0.94428724  0.79858363    -0.61230
N2378       N  0.77255763  0.94274697  0.79935950    -0.07490
N2379       N  0.78068182  0.92922432  0.82603275    -0.60240
N2380       N  0.76770187  0.92851872  0.72101337    -0.05220
N2381       N  0.77150422  0.91021435  0.69584785    -0.61310
Mn2382     Mn  0.79293386  0.97049072  0.73519009     1.18440
C2383       C  0.74945186  0.88882390  0.69842324     0.96980
C2384       C  0.81071946  0.93082348  0.82531649     0.97650
N2385       N  0.71631247  0.55192808  0.70214659    -0.07510
N2386       N  0.70805868  0.56659444  0.67608936    -0.63820
N2387       N  0.72122284  0.56570671  0.78005556    -0.06310
N2388       N  0.71746193  0.58397486  0.80526422    -0.64490
N2389       N  0.74503319  0.57415907  0.76432989    -0.07020
N2390       N  0.75816609  0.59808132  0.77851268    -0.64080
N2391       N  0.69275699  0.54275904  0.71805942    -0.05910
N2392       N  0.66815524  0.55079510  0.70323378    -0.64770
Mn2393     Mn  0.76121422  0.54749286  0.72326455     1.10660
C2394       C  0.67798122  0.56523681  0.67698139     0.98210
C2395       C  0.74069640  0.60408153  0.80390673     0.98280
N2396       N  0.70822369  0.97419984  0.81753883    -0.07020
N2397       N  0.69068674  0.96105887  0.83888271    -0.62400
N2398       N  0.67171017  0.97985929  0.75266988    -0.06340
N2399       N  0.64274845  0.97687699  0.74836732    -0.59130
N2400       N  0.68411380  0.95170477  0.75683328    -0.07650
N2401       N  0.66406321  0.92927487  0.75537189    -0.61960
N2402       N  0.69962783  0.00392157  0.81307247    -0.06640
N2403       N  0.67787319  0.01150457  0.83251755    -0.59150
Mn2404     Mn  0.72781321  0.94644484  0.77822023     1.20190
Mn2405     Mn  0.69612494  0.52349384  0.76581240     1.10090
Cl2406     Cl  0.74449698  0.99696285  0.75057286    -0.87120
C2407       C  0.67170362  0.98463702  0.84788191     0.95210
C2408       C  0.63854276  0.94510846  0.74949516     0.95010
C2409       C  0.91832351  0.59008469  0.72826156    -0.14500
C2410       C  0.92207483  0.61143766  0.75342529     0.07650
C2411       C  0.90617152  0.60667630  0.78163531    -0.14500
C2412       C  0.88443397  0.58347820  0.78344516    -0.14500
C2413       C  0.87873560  0.56412137  0.75738251     0.07650
C2414       C  0.89662890  0.56650460  0.73024671    -0.14500
H2415       H  0.93010618  0.59338737  0.70622675     0.11630
H2416       H  0.90878063  0.62266180  0.80151782     0.11630
H2417       H  0.87053332  0.58227655  0.80434320     0.11630
H2418       H  0.89200089  0.55211879  0.70966232     0.11630
C2419       C  0.57880718  0.89567027  0.78519572    -0.14500
C2420       C  0.56480430  0.88428016  0.75805754     0.07650
C2421       C  0.57163529  0.89773848  0.72874437    -0.14500
C2422       C  0.59379926  0.92060665  0.72623341    -0.14500
C2423       C  0.60964034  0.92978509  0.75295204     0.07650
C2424       C  0.60137748  0.91804594  0.78258767    -0.14500
H2425       H  0.57433927  0.88510461  0.80790291     0.11630
H2426       H  0.56128947  0.88890359  0.70751368     0.11630
H2427       H  0.60027749  0.92901202  0.70317512     0.11630
H2428       H  0.61382589  0.92452046  0.80338285     0.11630
C2429       C  0.72837635  0.81022884  0.66256291    -0.14500
C2430       C  0.72805671  0.81753620  0.63044765     0.07650
C2431       C  0.73550813  0.84816021  0.62060211    -0.14500
C2432       C  0.74351142  0.87121492  0.64273695    -0.14500
C2433       C  0.74310325  0.86412472  0.67495271     0.07650
C2434       C  0.73521007  0.83362293  0.68476724    -0.14500
H2435       H  0.72304344  0.78654715  0.67041441     0.11630
H2436       H  0.73582804  0.85394658  0.59578486     0.11630
H2437       H  0.74935355  0.89473366  0.63480971     0.11630
H2438       H  0.73479083  0.82781191  0.70956959     0.11630
C2439       C  0.72496206  0.63960406  0.84851020    -0.14500
C2440       C  0.74729274  0.62841939  0.82789191     0.07650
C2441       C  0.77609515  0.64080248  0.83020360    -0.14500
C2442       C  0.78244736  0.66403304  0.85279896    -0.14500
C2443       C  0.75986927  0.67579946  0.87266916     0.07650
C2444       C  0.73111809  0.66347682  0.87043560    -0.14500
H2445       H  0.70263759  0.63039045  0.84722903     0.11630
H2446       H  0.79374112  0.63239255  0.81466198     0.11630
H2447       H  0.80471033  0.67338684  0.85422740     0.11630
H2448       H  0.71347275  0.67223415  0.88581720     0.11630
C2449       C  0.60654037  0.71639744  0.91079940    -0.14500
C2450       C  0.63700948  0.71729632  0.90425610     0.07650
C2451       C  0.64701882  0.71327829  0.87293716    -0.14500
C2452       C  0.62682387  0.71269019  0.84815604    -0.14500
C2453       C  0.59641475  0.71613611  0.85449278     0.07650
C2454       C  0.58633256  0.71581037  0.88600853    -0.14500
H2455       H  0.59831378  0.71921194  0.93470812     0.11630
H2456       H  0.67054958  0.71333753  0.86737965     0.11630
H2457       H  0.63512458  0.71256977  0.82415203     0.11630
H2458       H  0.56283625  0.71786303  0.89150036     0.11630
C2459       C  0.88056311  0.77795981  0.59251828    -0.14500
C2460       C  0.85000578  0.77739007  0.59852087     0.07650
C2461       C  0.83954910  0.78151441  0.62968288    -0.14500
C2462       C  0.85937619  0.78204967  0.65483315    -0.14500
C2463       C  0.88985712  0.77836652  0.64902848     0.07650
C2464       C  0.90037598  0.77836349  0.61765569    -0.14500
H2465       H  0.88913716  0.77495044  0.56876466     0.11630
H2466       H  0.81592876  0.78164938  0.63481466     0.11630
H2467       H  0.85072710  0.78234270  0.67870308     0.11630
H2468       H  0.92388394  0.77586431  0.61251797     0.11630
C2469       C  0.83889250  0.56326765  0.02101516    -0.14500
C2470       C  0.85712509  0.56010292  0.99414004     0.07650
C2471       C  0.85103718  0.57840080  0.96761153    -0.14500
C2472       C  0.82878569  0.60167273  0.96883118    -0.14500
C2473       C  0.81283690  0.60761513  0.99693122     0.07650
C2474       C  0.81676394  0.58702272  0.02245508    -0.14500
H2475       H  0.84371396  0.54958555  0.04188942     0.11630
H2476       H  0.86512843  0.57650408  0.94685946     0.11630
H2477       H  0.82598184  0.61698728  0.94865612     0.11630
H2478       H  0.80485971  0.59116291  0.54438857     0.11630
C2479       C  0.64675001  0.92941963  0.97614929    -0.14500
C2480       C  0.63213149  0.93612542  0.50483002     0.07650
C2481       C  0.64144993  0.92088958  0.53223154    -0.14500
C2482       C  0.66330896  0.89714655  0.53058543    -0.14500
C2483       C  0.67584493  0.88804256  0.00142535     0.07650
C2484       C  0.66869276  0.90554022  0.97445457    -0.14500
H2485       H  0.63923564  0.94047851  0.95461746     0.11630
H2486       H  0.63001400  0.92538289  0.55438966     0.11630
H2487       H  0.66855581  0.88401874  0.55171090     0.11630
H2488       H  0.67779732  0.89872437  0.95166661     0.11630
C2489       C  0.58896959  0.99578908  0.85538237    -0.14500
C2490       C  0.58120362  0.97212968  0.87656494     0.07650
C2491       C  0.60291359  0.94994215  0.88626378    -0.14500
C2492       C  0.63265573  0.95320545  0.87670581    -0.14500
C2493       C  0.64075633  0.97893664  0.85784562     0.07650
C2494       C  0.61834619  0.99926304  0.84623478    -0.14500
H2495       H  0.57266689  0.51332707  0.84801507     0.11630
H2496       H  0.59741812  0.93190941  0.90332464     0.11630
H2497       H  0.64938648  0.93676608  0.88525774     0.11630
H2498       H  0.62349040  0.51865881  0.83060503     0.11630
C2499       C  0.88185739  0.54169559  0.60710227    -0.14500
C2500       C  0.90510787  0.52650928  0.62344971     0.07650
C2501       C  0.89887896  0.50963845  0.65071959    -0.14500
C2502       C  0.86960774  0.50579596  0.66029119    -0.14500
C2503       C  0.84603807  0.51833349  0.64241677     0.07650
C2504       C  0.85229090  0.53774682  0.61668966    -0.14500
H2505       H  0.88637818  0.55412265  0.58536589     0.11630
H2506       H  0.91646641  0.49740566  0.66321359     0.11630
H2507       H  0.86538855  0.49179559  0.68110383     0.11630
H2508       H  0.83443691  0.54814793  0.60308303     0.11630
C2509       C  0.53141509  0.86344136  0.59617756    -0.14500
C2510       C  0.00251756  0.86888755  0.58500521     0.07650
C2511       C  0.97940444  0.84931407  0.59487491    -0.14500
C2512       C  0.98517694  0.82412892  0.61514369    -0.14500
C2513       C  0.51398308  0.81869458  0.62662646     0.07650
C2514       C  0.53702349  0.83881169  0.61738306    -0.14500
H2515       H  0.54949792  0.87845157  0.58876319     0.11630
H2516       H  0.95701816  0.85307479  0.58633326     0.11630
H2517       H  0.96696773  0.80921617  0.62230059     0.11630
H2518       H  0.55934286  0.83514826  0.62612046     0.11630
C2519       C  0.98737190  0.62316929  0.88737219    -0.14500
C2520       C  0.98444000  0.62838129  0.91991488     0.07650
C2521       C  0.97385427  0.65791557  0.93112333    -0.14500
C2522       C  0.96709670  0.68226141  0.91012337    -0.14500
C2523       C  0.96966325  0.67692399  0.87764999     0.07650
C2524       C  0.97955695  0.64720324  0.86630408    -0.14500
H2525       H  0.99530390  0.60046184  0.87831128     0.11630
H2526       H  0.97148043  0.66237279  0.95618029     0.11630
H2527       H  0.95988850  0.70524153  0.91917066     0.11630
H2528       H  0.98209266  0.64297642  0.84121980     0.11630
C2529       C  0.64063510  0.59735751  0.64088574    -0.14430
C2530       C  0.65839787  0.58190204  0.65583335    -0.15990
C2531       C  0.60263623  0.63722585  0.64931252    -0.14430
C2532       C  0.58770197  0.65078822  0.66940031    -0.15990
C2533       C  0.65036673  0.65331443  0.58390040    -0.14430
C2534       C  0.63551808  0.63888060  0.60288818    -0.15990
C2535       C  0.59773406  0.59956113  0.60687214    -0.14430
C2536       C  0.58022598  0.58594809  0.59017148    -0.15990
C2537       C  0.89049640  0.89706009  0.89685926    -0.14430
C2538       C  0.90841439  0.91031324  0.91332879    -0.15990
C2539       C  0.85198270  0.85844319  0.90094627    -0.14430
C2540       C  0.83705225  0.84363033  0.91952870    -0.15990
C2541       C  0.83011336  0.91523096  0.84734391    -0.14430
C2542       C  0.84752330  0.90007934  0.86296933    -0.15990
C2543       C  0.89907023  0.84587128  0.83434822    -0.14430
C2544       C  0.88455867  0.85962831  0.85455756    -0.15990
loop_ 
_geom_bond_atom_site_label_1 
_geom_bond_atom_site_label_2 
_geom_bond_distance 
_geom_bond_site_symmetry_2 
_ccdc_geom_bond_type 
C1          C311   1.473       .  S
C1          C313   1.479       .  S
C1          C316   1.472       .  S
C1          C318   1.478       .  S
C2          C303   1.474       .  S
C2          C305   1.483       .  S
C2          C308   1.481       .  S
C2          C309   1.474       .  S
N3            N4   1.316       .  A
N3            N9   1.317       .  A
N3         Mn350   2.195       .  S
N4           C11   1.349       .  A
N5            N6   1.314       .  A
N5          N643   1.319       .  A
N5          Mn21   2.189       .  S
N6          C648   1.346       .  A
N7            N8   1.321       .  A
N7          N641   1.319   1_545  A
N7          Mn32   2.185       .  S
N8           C12   1.348       .  A
N9           N10   1.324       .  A
N9         Mn975   2.208   1_545  S
N10          C11   1.353       .  A
C11         C244   1.464       .  S
C12         N642   1.346   1_545  A
C12         C274   1.456       .  S
N13          N19   1.314       .  A
N13          N14   1.319       .  A
N13       Mn1633   2.189   1_554  S
N14          C22   1.350       .  A
N15          N16   1.320       .  A
N15          N17   1.316       .  A
N15        Mn339   2.195       .  S
N16          C23   1.349       .  A
N17          N18   1.324       .  A
N17       Mn1315   2.221       .  S
N18          C23   1.355       .  A
N19          N20   1.321       .  A
N19         Mn21   2.201       .  S
N20          C22   1.354       .  A
Mn21        N963   2.208       .  S
Mn21        N333   2.195   1_554  S
Mn21       Cl363   2.535       .  S
C22         C284   1.467       .  S
C23         C312   1.442       .  S
N24          N25   1.324       .  A
N24        N1302   1.316       .  A
N24         Mn32   2.215       .  S
N25        C1305   1.354       .  A
N26          N27   1.323       .  A
N26        N1300   1.313   1_455  A
N26         Mn44   2.208       .  S
N27        C1306   1.356   1_455  A
N28          N29   1.317       .  A
N28        N1298   1.313       .  A
N28        Mn350   2.180       .  S
N29          C34   1.348       .  A
N30          N31   1.321       .  A
N30        N1296   1.316       .  A
N30        Mn362   2.205   1_554  S
N31          C33   1.350       .  A
Mn32        N321   2.195       .  S
Mn32        N346   2.180   1_554  S
Mn32       Cl999   2.543   1_545  S
C33        N1297   1.354       .  A
C33         C310   1.443       .  S
C34        N1299   1.356       .  A
C34         C294   1.470       .  S
N35          N36   1.323       .  A
N35          N41   1.319       .  A
N35         Mn43   2.191       .  S
N36          C46   1.350       .  A
N37          N38   1.324   1_556  A
N37          N39   1.317       .  A
N37        Mn998   2.212       .  S
N38          C47   1.354       .  A
N39          N40   1.316   1_556  A
N39        Mn361   2.188       .  S
N40          C47   1.348       .  A
N41         N678   1.313       .  A
N41        Mn680   2.187       .  S
N42         N677   1.313   1_545  A
N42         C682   1.346   1_545  A
Mn43       N1603   2.189   1_455  S
Mn43       N1289   2.221   1_455  S
Mn43        N357   2.188       .  S
Mn43      Cl1317   2.543   1_455  S
Mn44        N348   2.205       .  S
Mn44        N991   2.212   1_545  S
Mn44        N677   2.187   1_545  S
Mn44      Cl1953   2.529   1_445  S
Cl45       Mn339   2.535       .  S
Cl45       Mn986   2.543       .  S
Cl45      Mn1315   2.543       .  S
Cl45      Mn1952   2.529       .  S
C46         N678   1.346       .  A
C46         C264   1.461       .  S
C47         C254   1.464       .  S
N48          N49   1.322       .  A
N48          N54   1.318       .  A
N48         Mn77   2.206       .  S
N49          C56   1.351       .  A
N50          N52   1.315       .  A
N50          N51   1.323       .  A
N50         Mn66   2.206       .  S
N51          C57   1.354       .  A
N52          N53   1.317       .  A
N52         Mn77   2.187       .  S
N53          C57   1.348       .  A
N54          N55   1.324       .  A
N54         Mn66   2.215       .  S
N55          C56   1.352       .  A
C56         C314   1.448       .  S
C57         C217   1.466       .  S
N58          N59   1.327       .  A
N58         N382   1.316   1_554  A
N58         Mn88   2.217       .  S
N59          C67   1.360       .  A
N60          N61   1.327       .  A
N60          N62   1.316       .  A
N60        Mn384   2.224   1_554  S
N61          C68   1.361       .  A
N62          N63   1.312       .  A
N62         Mn88   2.174       .  S
N63          C68   1.343       .  A
N64          N65   1.313       .  A
N64         N376   1.316       .  A
N64         Mn66   2.188       .  S
N65         C385   1.346       .  A
Mn66        N378   2.224       .  S
Mn66        Cl90   2.546       .  S
C67         N383   1.346   1_554  A
C67         C565   1.477   1_554  S
C68         C234   1.472       .  S
N69          N70   1.312       .  A
N69          N75   1.315       .  A
N69         Mn77   2.175       .  S
N70          C78   1.344       .  A
N71          N73   1.315       .  A
N71         N390   1.315       .  A
N71        Mn407   2.197       .  S
N72         N389   1.315       .  A
N72         C397   1.349   1_554  A
N73          N74   1.325       .  A
N73         Mn77   2.204       .  S
N74          C79   1.357       .  A
N75          N76   1.326       .  A
N75        Mn407   2.220       .  S
N76          C78   1.361       .  A
Mn77        Cl90   2.541       .  S
C78         C224   1.472       .  S
C79         N390   1.349       .  A
C79         C257   1.474       .  S
N80          N81   1.319       .  A
N80          N86   1.315       .  A
N80         Mn88   2.195       .  S
N81          C91   1.349       .  A
N82          N83   1.325       .  A
N82          N84   1.319       .  A
N82         Mn89   2.221       .  S
N83          C92   1.352       .  A
N84          N85   1.323       .  A
N84         Mn88   2.204       .  S
N85          C92   1.351       .  A
N86          N87   1.321       .  A
N86         Mn89   2.201       .  S
N87          C91   1.353       .  A
Mn88       Cl408   2.547       .  S
Mn89        N389   2.197       .  S
Mn89        N393   2.220   1_554  S
Mn89       Cl408   2.541       .  S
Cl90       Mn406   2.547       .  S
Cl90       Mn407   2.541       .  S
C91         C204   1.464       .  S
C92         C307   1.449       .  S
N93          N94   1.322       .  A
N93          N99   1.319       .  A
N93       Mn1394   2.201       .  S
N94         C101   1.349       .  A
N95          N97   1.314       .  A
N95          N96   1.322       .  A
N95        Mn111   2.200       .  S
N96         C102   1.352       .  A
N97          N98   1.319       .  A
N97       Mn1394   2.192       .  S
N98         C102   1.349       .  A
N99         N100   1.325       .  A
N99        Mn111   2.218       .  S
N100        C101   1.352       .  A
C101        C317   1.447       .  S
C102        C297   1.464       .  S
N103        N109   1.316       .  A
N103        N104   1.328       .  A
N103       Mn133   2.222       .  S
N104        C112   1.361       .  A
N105        N106   1.327       .  A
N105        N107   1.315       .  A
N105       Mn111   2.223       .  S
N106        C113   1.362       .  A
N107        N108   1.312       .  A
N107       Mn133   2.175       .  S
N108        C113   1.343       .  A
N109        N110   1.312       .  A
N109       Mn111   2.182       .  S
N110        C112   1.345       .  A
Mn111      Cl135   2.543       .  S
C112        C184   1.477       .  S
C113        C237   1.475       .  S
N114        N115   1.312       .  A
N114        N120   1.316       .  A
N114       Mn122   2.173       .  S
N115        C123   1.344       .  A
N116        N118   1.316       .  A
N116        N117   1.317       .  A
N116       Mn134   2.199       .  S
N117        C124   1.348       .  A
N118        N119   1.325       .  A
N118       Mn122   2.207       .  S
N119        C124   1.356       .  A
N120        N121   1.326       .  A
N120       Mn134   2.226       .  S
N121        C123   1.361       .  A
Mn122      N1365   2.201   1_455  S
Mn122      N1369   2.192   1_455  S
Mn122     Cl1407   2.543   1_455  S
C123        C227   1.473       .  S
C124        C194   1.470       .  S
N125        N126   1.317       .  A
N125        N131   1.315       .  A
N125      Mn1405   2.193   1_455  S
N126        C136   1.349       .  A
N127        N128   1.325       .  A
N127        N129   1.320       .  A
N127       Mn134   2.222       .  S
N128        C137   1.352       .  A
N129       N1402   1.323       .  A
N129      Mn1405   2.207   1_455  S
N130       N1401   1.323       .  A
N130       C1409   1.350       .  A
N131        N132   1.323       .  A
N131       Mn134   2.205       .  S
N132        C136   1.355       .  A
Mn133      N1397   2.193       .  S
Mn133      N1401   2.207       .  S
Mn133      Cl135   2.542       .  S
Mn134     Cl1407   2.548   1_455  S
Cl135     Mn1394   2.543       .  S
Cl135     Mn1406   2.548       .  S
C136        C287   1.473       .  S
C137       N1402   1.350       .  A
C137        C306   1.452       .  S
N138        N139   1.317       .  A
N138        N780   1.316       .  A
N138       Mn167   2.191       .  S
N139        C146   1.349       .  A
N140        N141   1.312       .  A
N140        N778   1.321       .  A
N140       Mn156   2.187       .  S
N141        C783   1.344       .  A
N142        N143   1.323       .  A
N142        N776   1.321   1_545  A
N142       Mn167   2.196       .  S
N143        C147   1.350       .  A
N144        N145   1.324       .  A
N144        N774   1.316       .  A
N144       Mn156   2.209       .  S
N145        C782   1.353       .  A
C146        N781   1.353       .  A
C146        C187   1.465       .  S
C147        N777   1.344   1_545  A
C147        C277   1.468       .  S
N148        N154   1.314       .  A
N148        N149   1.319       .  A
N148       Mn178   2.190       .  S
N149        C157   1.350       .  A
N150        N151   1.320       .  A
N150        N152   1.317       .  A
N150       Mn156   2.202       .  S
N151        C158   1.349       .  A
N152        N153   1.324       .  A
N152       Mn178   2.215       .  S
N153        C158   1.355       .  A
N154        N155   1.321       .  A
N154       Mn156   2.195       .  S
N155        C157   1.353       .  A
Mn156      Cl180   2.515       .  S
C157        C207   1.467       .  S
C158        C315   1.441       .  S
N159        N160   1.325       .  A
N159        N165   1.316       .  A
N159       Mn167   2.223       .  S
N160        C168   1.356       .  A
N161        N163   1.313       .  A
N161        N162   1.322       .  A
N161       Mn179   2.201       .  S
N162        C169   1.355       .  A
N163        N164   1.318       .  A
N163       Mn167   2.182       .  S
N164        C169   1.350       .  A
N165        N166   1.320       .  A
N165       Mn179   2.196       .  S
N166        C168   1.348       .  A
Mn167      Cl816   2.550   1_545  S
C168        C304   1.443       .  S
C169        C214   1.474       .  S
N170        N171   1.326       .  A
N170        N176   1.321       .  A
N170       Mn178   2.203       .  S
N171        C181   1.352       .  A
N172        N173   1.325       .  A
N172        N174   1.318       .  A
N172       Mn815   2.222       .  S
N173        C182   1.354       .  A
N174        N175   1.316       .  A
N174       Mn178   2.182       .  S
N175        C182   1.347       .  A
N176        N177   1.311       .  A
N176       Mn815   2.182       .  S
N177        C181   1.341       .  A
Mn178      Cl180   2.556       .  S
Mn179       N808   2.222   1_545  S
Mn179       N812   2.182       .  S
Mn179      Cl816   2.512   1_545  S
Cl180      Mn803   2.550       .  S
Cl180      Mn815   2.512       .  S
C181        C267   1.476       .  S
C182        C197   1.466       .  S
C183        C184   1.404       .  A
C183        C188   1.404       .  A
C183        H189   1.083       .  S
C184        C185   1.408       .  A
C185        C186   1.393       .  A
C185        H190   1.084       .  S
C186        C187   1.396       .  A
C186        H191   1.084       .  S
C187        C188   1.406       .  A
C188        H192   1.083       .  S
C193        C194   1.402       .  A
C193        C198   1.398       .  A
C193        H199   1.084       .  S
C194        C195   1.405       .  A
C195        C196   1.399       .  A
C195        H200   1.083       .  S
C196        C197   1.399       .  A
C196        H201   1.083       .  S
C197        C198   1.405       .  A
C198        H202   1.084       .  S
C203        C204   1.401       .  A
C203        C208   1.397       .  A
C203        H209   1.083       .  S
C204        C205   1.403       .  A
C205        C206   1.398       .  A
C205        H210   1.084       .  S
C206        C207   1.403       .  A
C206        H211   1.083       .  S
C207        C208   1.403       .  A
C208        H212   1.083       .  S
C213        C214   1.402       .  A
C213        C218   1.396       .  A
C213        H219   1.083       .  S
C214        C215   1.407       .  A
C215        C216   1.398       .  A
C215        H220   1.083       .  S
C216        C217   1.399       .  A
C216        H221   1.083       .  S
C217        C218   1.404       .  A
C218        H222   1.084       .  S
C223        C224   1.398       .  A
C223        C228   1.397       .  A
C223        H229   1.083       .  S
C224        C225   1.409       .  A
C225        C226   1.396       .  A
C225        H230   1.083       .  S
C226        C227   1.398       .  A
C226        H231   1.083       .  S
C227        C228   1.410       .  A
C228        H232   1.083       .  S
C233        C234   1.397       .  A
C233        C238   1.396       .  A
C233        H239   1.083       .  S
C234        C235   1.410       .  A
C235        C236   1.397       .  A
C235        H240   1.083       .  S
C236        C237   1.398       .  A
C236        H241   1.083       .  S
C237        C238   1.410       .  A
C238        H242   1.082       .  S
C243        C244   1.405       .  A
C243        C248   1.403       .  A
C243        H249   1.083       .  S
C244        C245   1.397       .  A
C245        C246   1.393       .  A
C245        H250   1.084       .  S
C246        C247   1.407       .  A
C246        H251   1.084       .  S
C247        C385   1.477       .  S
C247        C248   1.404       .  A
C248        H570   1.083       .  S
H252        C566   1.083       .  S
C253        C258   1.402       .  A
C253        C572   1.405       .  A
C253        H259   1.084       .  S
C254        C255   1.398       .  A
C254        C571   1.405   1_554  A
C255        C256   1.395       .  A
C255        H260   1.083       .  S
C256        C575   1.405       .  A
C256        H261   1.083       .  S
C257        C258   1.404       .  A
C257        C574   1.405       .  A
C258        H262   1.083       .  S
C263        C264   1.394       .  A
C263        C268   1.385       .  A
C263        H905   1.084       .  S
C264        C265   1.409       .  A
C265        C266   1.404       .  A
C265        H270   1.083       .  S
C266        C267   1.403       .  A
C266        H271   1.083       .  S
C267        C268   1.409       .  A
C268        H908   1.083       .  S
H269        C899   1.084   1_545  S
H272        C904   1.083   1_545  S
C273        C274   1.410       .  A
C273        C278   1.401       .  A
C273        H279   1.084       .  S
C274        C275   1.392       .  A
C275        C276   1.387       .  A
C275        H280   1.083   1_545  S
C276        C277   1.409       .  A
C276        H281   1.083   1_545  S
C277        C278   1.399       .  A
C278        H282   1.083       .  S
C283        C288   1.401       .  A
C283       C1556   1.405       .  A
C283        H289   1.083       .  S
C284        C285   1.399       .  A
C284       C1555   1.405       .  A
C285        C286   1.394       .  A
C285        H290   1.084       .  S
C286       C1559   1.405       .  A
C286        H291   1.082       .  S
C287        C288   1.403       .  A
C287       C1558   1.405   1_455  A
C288        H292   1.083       .  S
C293        C294   1.402       .  A
C293        C298   1.399       .  A
C293        H299   1.083       .  S
C294        C295   1.404       .  A
C295        C296   1.396       .  A
C295        H300   1.083       .  S
C296        C297   1.399       .  A
C296        H301   1.083       .  S
C297        C298   1.403       .  A
C298        H302   1.083       .  S
C303        C304   1.211       .  T
C305        C306   1.216       .  T
C307        C308   1.215       .  T
C309        C310   1.211       .  T
C311        C312   1.210       .  T
C313        C314   1.214       .  T
C315        C316   1.210       .  T
C317        C318   1.213       .  T
C319        C629   1.473       .  S
C319        C631   1.479       .  S
C319        C634   1.472       .  S
C319        C636   1.478       .  S
C320        C621   1.474       .  S
C320        C623   1.483       .  S
C320        C626   1.481       .  S
C320        C627   1.474       .  S
N321        N322   1.316       .  A
N321        N327   1.317       .  A
N322        C329   1.349   1_554  A
N323        N961   1.319       .  A
N323        N324   1.314       .  A
N323       Mn339   2.189       .  S
N324        C966   1.346       .  A
N325        N959   1.319   1_545  A
N325        N326   1.321       .  A
N325       Mn350   2.185       .  S
N326        C330   1.348       .  A
N327        N328   1.324       .  A
N327       Mn657   2.208   1_545  S
N328        C329   1.353   1_554  A
C329        C562   1.464       .  S
C330        N960   1.346   1_545  A
C330        C592   1.456       .  S
N331        N337   1.314       .  A
N331        N332   1.319       .  A
N331      Mn1315   2.189       .  S
N332        C340   1.350       .  A
N333        N334   1.320       .  A
N333        N335   1.316       .  A
N334        C341   1.349       .  A
N335        N336   1.324       .  A
N335      Mn1633   2.221       .  S
N336        C341   1.355       .  A
N337        N338   1.321       .  A
N337       Mn339   2.201       .  S
N338        C340   1.354       .  A
Mn339       N645   2.208       .  S
C340        C602   1.467       .  S
C341        C630   1.442       .  S
N342        N343   1.324       .  A
N342       N1620   1.316       .  A
N342       Mn350   2.215       .  S
N343       C1623   1.354       .  A
N344       N1618   1.313   1_455  A
N344        N345   1.323       .  A
N344       Mn362   2.208       .  S
N345       C1624   1.356   1_455  A
N346       N1616   1.313       .  A
N346        N347   1.317       .  A
N347        C352   1.348       .  A
N348       N1614   1.316       .  A
N348        N349   1.321       .  A
N349        C351   1.350       .  A
Mn350      Cl681   2.543   1_545  S
C351       N1615   1.354       .  A
C351        C628   1.443       .  S
C352       N1617   1.356       .  A
C352        C612   1.470       .  S
N353        N354   1.323       .  A
N353        N359   1.319       .  A
N353       Mn361   2.191       .  S
N354        C364   1.350       .  A
N355        N356   1.324       .  A
N355        N357   1.317       .  A
N355       Mn680   2.212       .  S
N356        C365   1.354       .  A
N357        N358   1.316       .  A
N358        C365   1.348       .  A
N359        N996   1.313       .  A
N359       Mn998   2.187       .  S
N360        N995   1.313   1_545  A
N360       C1000   1.346   1_545  A
Mn361      N1285   2.189   1_456  S
Mn361      N1607   2.221   1_455  S
Mn361     Cl1635   2.543   1_456  S
Mn362       N673   2.212   1_545  S
Mn362       N995   2.187   1_545  S
Mn362     Cl2271   2.529   1_446  S
Cl363      Mn668   2.543       .  S
Cl363     Mn1633   2.543   1_554  S
Cl363     Mn2270   2.529   1_554  S
C364        N996   1.346       .  A
C364        C582   1.461       .  S
C365        C572   1.464       .  S
N366        N367   1.322       .  A
N366        N372   1.318       .  A
N366       Mn395   2.206       .  S
N367        C374   1.351       .  A
N368        N370   1.315       .  A
N368        N369   1.323       .  A
N368       Mn384   2.206       .  S
N369        C375   1.354       .  A
N370        N371   1.317       .  A
N370       Mn395   2.187       .  S
N371        C375   1.348       .  A
N372        N373   1.324       .  A
N372       Mn384   2.215       .  S
N373        C374   1.352       .  A
C374        C632   1.448       .  S
C375        C535   1.466       .  S
N376        N377   1.327       .  A
N376       Mn406   2.217       .  S
N377        C385   1.360       .  A
N378        N379   1.327       .  A
N378        N380   1.316       .  A
N379        C386   1.361       .  A
N380        N381   1.312       .  A
N380       Mn406   2.174       .  S
N381        C386   1.343       .  A
N382        N383   1.313       .  A
N382       Mn384   2.188       .  S
Mn384      Cl408   2.546   1_556  S
C386        C552   1.472       .  S
N387        N388   1.312       .  A
N387        N393   1.315       .  A
N387       Mn395   2.175       .  S
N388        C396   1.344       .  A
N389        N391   1.315   1_554  A
N391        N392   1.325       .  A
N391       Mn395   2.204       .  S
N392        C397   1.357       .  A
N393        N394   1.326       .  A
N394        C396   1.361       .  A
Mn395      Cl408   2.541   1_556  S
C396        C542   1.472       .  S
C397        C575   1.474   1_556  S
N398        N399   1.319       .  A
N398        N404   1.315       .  A
N398       Mn406   2.195       .  S
N399        C409   1.349       .  A
N400        N401   1.325       .  A
N400        N402   1.319       .  A
N400       Mn407   2.221       .  S
N401        C410   1.352       .  A
N402        N403   1.323       .  A
N402       Mn406   2.204       .  S
N403        C410   1.351       .  A
N404        N405   1.321       .  A
N404       Mn407   2.201       .  S
N405        C409   1.353       .  A
C409        C522   1.464       .  S
C410        C625   1.449       .  S
N411        N412   1.322       .  A
N411        N417   1.319       .  A
N411      Mn1712   2.201       .  S
N412        C419   1.349       .  A
N413        N415   1.314       .  A
N413        N414   1.322       .  A
N413       Mn429   2.200       .  S
N414        C420   1.352       .  A
N415        N416   1.319       .  A
N415      Mn1712   2.192       .  S
N416        C420   1.349       .  A
N417        N418   1.325       .  A
N417       Mn429   2.218       .  S
N418        C419   1.352       .  A
C419        C635   1.447       .  S
C420        C615   1.464       .  S
N421        N427   1.316       .  A
N421        N422   1.328       .  A
N421       Mn451   2.222       .  S
N422        C430   1.361       .  A
N423        N424   1.327       .  A
N423        N425   1.315       .  A
N423       Mn429   2.223       .  S
N424        C431   1.362       .  A
N425        N426   1.312       .  A
N425       Mn451   2.175       .  S
N426        C431   1.343       .  A
N427        N428   1.312       .  A
N427       Mn429   2.182       .  S
N428        C430   1.345       .  A
Mn429      Cl453   2.543       .  S
C430        C502   1.477       .  S
C431        C555   1.475       .  S
N432        N433   1.312       .  A
N432        N438   1.316       .  A
N432       Mn440   2.173       .  S
N433        C441   1.344       .  A
N434        N436   1.316       .  A
N434        N435   1.317       .  A
N434       Mn452   2.199       .  S
N435        C442   1.348       .  A
N436        N437   1.325       .  A
N436       Mn440   2.207       .  S
N437        C442   1.356       .  A
N438        N439   1.326       .  A
N438       Mn452   2.226       .  S
N439        C441   1.361       .  A
Mn440      N1683   2.201   1_455  S
Mn440      N1687   2.192   1_455  S
Mn440     Cl1725   2.543   1_455  S
C441        C545   1.473       .  S
C442        C512   1.470       .  S
N443        N444   1.317       .  A
N443        N449   1.315       .  A
N443      Mn1723   2.193   1_455  S
N444        C454   1.349       .  A
N445        N446   1.325       .  A
N445        N447   1.320       .  A
N445       Mn452   2.222       .  S
N446        C455   1.352       .  A
N447       N1720   1.323       .  A
N447      Mn1723   2.207   1_455  S
N448       N1719   1.323       .  A
N448       C1727   1.350       .  A
N449        N450   1.323       .  A
N449       Mn452   2.205       .  S
N450        C454   1.355       .  A
Mn451      N1715   2.193       .  S
Mn451      N1719   2.207       .  S
Mn451      Cl453   2.542       .  S
Mn452     Cl1725   2.548   1_455  S
Cl453     Mn1712   2.543       .  S
Cl453     Mn1724   2.548       .  S
C454        C605   1.473       .  S
C455       N1720   1.350       .  A
C455        C624   1.452       .  S
N456        N457   1.317       .  A
N456       N1098   1.316       .  A
N456       Mn485   2.191       .  S
N457        C464   1.349       .  A
N458       N1096   1.321       .  A
N458        N459   1.312       .  A
N458       Mn474   2.187       .  S
N459       C1101   1.344       .  A
N460       N1094   1.321   1_545  A
N460        N461   1.323       .  A
N460       Mn485   2.196       .  S
N461        C465   1.350       .  A
N462       N1092   1.316       .  A
N462        N463   1.324       .  A
N462       Mn474   2.209       .  S
N463       C1100   1.353       .  A
C464       N1099   1.353       .  A
C464        C505   1.465       .  S
C465       N1095   1.344   1_545  A
C465        C595   1.468       .  S
N466        N472   1.314       .  A
N466        N467   1.319       .  A
N466       Mn496   2.190       .  S
N467        C475   1.350       .  A
N468        N469   1.320       .  A
N468        N470   1.317       .  A
N468       Mn474   2.202       .  S
N469        C476   1.349       .  A
N470        N471   1.324       .  A
N470       Mn496   2.215       .  S
N471        C476   1.355       .  A
N472        N473   1.321       .  A
N472       Mn474   2.195       .  S
N473        C475   1.353       .  A
Mn474      Cl498   2.515       .  S
C475        C525   1.467       .  S
C476        C633   1.441       .  S
N477        N478   1.325       .  A
N477        N483   1.316       .  A
N477       Mn485   2.223       .  S
N478        C486   1.356       .  A
N479        N481   1.313       .  A
N479        N480   1.322       .  A
N479       Mn497   2.201       .  S
N480        C487   1.355       .  A
N481        N482   1.318       .  A
N481       Mn485   2.182       .  S
N482        C487   1.350       .  A
N483        N484   1.320       .  A
N483       Mn497   2.196       .  S
N484        C486   1.348       .  A
Mn485     Cl1134   2.550   1_545  S
C486        C622   1.443       .  S
C487        C532   1.474       .  S
N488        N489   1.326       .  A
N488        N494   1.321       .  A
N488       Mn496   2.203       .  S
N489        C499   1.352       .  A
N490        N491   1.325       .  A
N490        N492   1.318       .  A
N490      Mn1133   2.222       .  S
N491        C500   1.354       .  A
N492        N493   1.316       .  A
N492       Mn496   2.182       .  S
N493        C500   1.347       .  A
N494        N495   1.311       .  A
N494      Mn1133   2.182       .  S
N495        C499   1.341       .  A
Mn496      Cl498   2.556       .  S
Mn497      N1126   2.222   1_545  S
Mn497      N1130   2.182       .  S
Mn497     Cl1134   2.512   1_545  S
Cl498     Mn1121   2.550       .  S
Cl498     Mn1133   2.512       .  S
C499        C585   1.476       .  S
C500        C515   1.466       .  S
C501        C502   1.404       .  A
C501        C506   1.404       .  A
C501        H507   1.083       .  S
C502        C503   1.408       .  A
C503        C504   1.393       .  A
C503        H508   1.084       .  S
C504        C505   1.396       .  A
C504        H509   1.084       .  S
C505        C506   1.406       .  A
C506        H510   1.083       .  S
C511        C512   1.402       .  A
C511        C516   1.398       .  A
C511        H517   1.084       .  S
C512        C513   1.405       .  A
C513        C514   1.399       .  A
C513        H518   1.083       .  S
C514        C515   1.399       .  A
C514        H519   1.083       .  S
C515        C516   1.405       .  A
C516        H520   1.084       .  S
C521        C522   1.401       .  A
C521        C526   1.397       .  A
C521        H527   1.083       .  S
C522        C523   1.403       .  A
C523        C524   1.398       .  A
C523        H528   1.084       .  S
C524        C525   1.403       .  A
C524        H529   1.083       .  S
C525        C526   1.403       .  A
C526        H530   1.083       .  S
C531        C532   1.402       .  A
C531        C536   1.396       .  A
C531        H537   1.083       .  S
C532        C533   1.407       .  A
C533        C534   1.398       .  A
C533        H538   1.083       .  S
C534        C535   1.399       .  A
C534        H539   1.083       .  S
C535        C536   1.404       .  A
C536        H540   1.084       .  S
C541        C542   1.398       .  A
C541        C546   1.397       .  A
C541        H547   1.083       .  S
C542        C543   1.409       .  A
C543        C544   1.396       .  A
C543        H548   1.083       .  S
C544        C545   1.398       .  A
C544        H549   1.083       .  S
C545        C546   1.410       .  A
C546        H550   1.083       .  S
C551        C552   1.397       .  A
C551        C556   1.396       .  A
C551        H557   1.083       .  S
C552        C553   1.410       .  A
C553        C554   1.397       .  A
C553        H558   1.083       .  S
C554        C555   1.398       .  A
C554        H559   1.083       .  S
C555        C556   1.410       .  A
C556        H560   1.082       .  S
C561        C562   1.405   1_554  A
C561        C566   1.403       .  A
C561        H567   1.083       .  S
C562        C563   1.397       .  A
C563        C564   1.393       .  A
C563        H568   1.084       .  S
C564        C565   1.407       .  A
C564        H569   1.084       .  S
C565        C566   1.404   1_556  A
C571        C576   1.402       .  A
C571        H577   1.084       .  S
C572        C573   1.398       .  A
C573        C574   1.395       .  A
C573        H578   1.083       .  S
C574        H579   1.083       .  S
C575        C576   1.404   1_554  A
C576        H580   1.083       .  S
C581        C582   1.394       .  A
C581        C586   1.385       .  A
C581       H1223   1.084       .  S
C582        C583   1.409       .  A
C583        C584   1.404       .  A
C583        H588   1.083       .  S
C584        C585   1.403       .  A
C584        H589   1.083       .  S
C585        C586   1.409       .  A
C586       H1226   1.083       .  S
H587       C1217   1.084   1_545  S
H590       C1222   1.083   1_545  S
C591        C592   1.410       .  A
C591        C596   1.401       .  A
C591        H597   1.084       .  S
C592        C593   1.392       .  A
C593        C594   1.387       .  A
C593        H598   1.083   1_545  S
C594        C595   1.409       .  A
C594        H599   1.083   1_545  S
C595        C596   1.399       .  A
C596        H600   1.083       .  S
C601       C1874   1.405       .  A
C601        C606   1.401       .  A
C601        H607   1.083       .  S
C602       C1873   1.405       .  A
C602        C603   1.399       .  A
C603        C604   1.394       .  A
C603        H608   1.084       .  S
C604       C1877   1.405       .  A
C604        H609   1.082       .  S
C605       C1876   1.405   1_455  A
C605        C606   1.403       .  A
C606        H610   1.083       .  S
C611        C612   1.402       .  A
C611        C616   1.399       .  A
C611        H617   1.083       .  S
C612        C613   1.404       .  A
C613        C614   1.396       .  A
C613        H618   1.083       .  S
C614        C615   1.399       .  A
C614        H619   1.083       .  S
C615        C616   1.403       .  A
C616        H620   1.083       .  S
C621        C622   1.211       .  T
C623        C624   1.216       .  T
C625        C626   1.215       .  T
C627        C628   1.211       .  T
C629        C630   1.210       .  T
C631        C632   1.214       .  T
C633        C634   1.210       .  T
C635        C636   1.213       .  T
C637        C947   1.473       .  S
C637        C949   1.479       .  S
C637        C952   1.472       .  S
C637        C954   1.478       .  S
C638        C939   1.474       .  S
C638        C941   1.483       .  S
C638        C944   1.481       .  S
C638        C945   1.474       .  S
N639        N640   1.316       .  A
N639        N645   1.317       .  A
N639       Mn986   2.195       .  S
N640        C647   1.349       .  A
N641        N642   1.314       .  A
N641       Mn657   2.189       .  S
N643        N644   1.321       .  A
N643       Mn668   2.185       .  S
N644        C648   1.348       .  A
N645        N646   1.324       .  A
N646        C647   1.353       .  A
C647        C880   1.464       .  S
C648        C910   1.456       .  S
N649        N655   1.314       .  A
N649        N650   1.319       .  A
N649      Mn2269   2.189   1_554  S
N650        C658   1.350       .  A
N651        N652   1.320       .  A
N651        N653   1.316       .  A
N651       Mn975   2.195       .  S
N652        C659   1.349       .  A
N653        N654   1.324       .  A
N653      Mn1951   2.221       .  S
N654        C659   1.355       .  A
N655        N656   1.321       .  A
N655       Mn657   2.201       .  S
N656        C658   1.354       .  A
Mn657       N969   2.195   1_554  S
Mn657      Cl999   2.535       .  S
C658        C920   1.467       .  S
C659        C948   1.442       .  S
N660        N661   1.324       .  A
N660       N1938   1.316       .  A
N660       Mn668   2.215       .  S
N661       C1941   1.354       .  A
N662       N1936   1.313   1_455  A
N662        N663   1.323       .  A
N662       Mn680   2.208       .  S
N663       C1942   1.356   1_455  A
N664       N1934   1.313       .  A
N664        N665   1.317       .  A
N664       Mn986   2.180       .  S
N665        C670   1.348       .  A
N666       N1932   1.316       .  A
N666        N667   1.321       .  A
N666       Mn998   2.205   1_554  S
N667        C669   1.350       .  A
Mn668       N957   2.195       .  S
Mn668       N982   2.180   1_554  S
C669       N1933   1.354       .  A
C669        C946   1.443       .  S
C670       N1935   1.356       .  A
C670        C930   1.470       .  S
N671        N672   1.323       .  A
N671        N677   1.319       .  A
N671       Mn679   2.191       .  S
N672        C682   1.350       .  A
N673        N674   1.324   1_556  A
N673        N675   1.317       .  A
N674        C683   1.354       .  A
N675        N676   1.316   1_556  A
N675       Mn997   2.188       .  S
N676        C683   1.348       .  A
Mn679      N2239   2.189   1_455  S
Mn679      N1925   2.221   1_455  S
Mn679       N993   2.188       .  S
Mn679     Cl1953   2.543   1_455  S
Mn680       N984   2.205       .  S
Mn680     Cl1317   2.529   1_455  S
Cl681      Mn975   2.535       .  S
Cl681     Mn1951   2.543       .  S
Cl681     Mn1316   2.529   1_565  S
C682        C900   1.461       .  S
C683        C890   1.464       .  S
N684        N685   1.322       .  A
N684        N690   1.318       .  A
N684       Mn713   2.206       .  S
N685        C692   1.351       .  A
N686        N688   1.315       .  A
N686        N687   1.323       .  A
N686       Mn702   2.206       .  S
N687        C693   1.354       .  A
N688        N689   1.317       .  A
N688       Mn713   2.187       .  S
N689        C693   1.348       .  A
N690        N691   1.324       .  A
N690       Mn702   2.215       .  S
N691        C692   1.352       .  A
C692        C950   1.448       .  S
C693        C853   1.466       .  S
N694       N1018   1.316   1_554  A
N694        N695   1.327       .  A
N694       Mn724   2.217       .  S
N695        C703   1.360       .  A
N696        N697   1.327       .  A
N696        N698   1.316       .  A
N696      Mn1020   2.224   1_554  S
N697        C704   1.361       .  A
N698        N699   1.312       .  A
N698       Mn724   2.174       .  S
N699        C704   1.343       .  A
N700       N1012   1.316       .  A
N700        N701   1.313       .  A
N700       Mn702   2.188       .  S
N701       C1021   1.346       .  A
Mn702      N1014   2.224       .  S
Mn702      Cl726   2.546       .  S
C703       N1019   1.346   1_554  A
C703       C1201   1.477   1_554  S
C704        C870   1.472       .  S
N705        N706   1.312       .  A
N705        N711   1.315       .  A
N705       Mn713   2.175       .  S
N706        C714   1.344       .  A
N707        N709   1.315       .  A
N707       N1026   1.315       .  A
N707      Mn1043   2.197       .  S
N708       N1025   1.315       .  A
N708       C1033   1.349   1_554  A
N709        N710   1.325       .  A
N709       Mn713   2.204       .  S
N710        C715   1.357       .  A
N711        N712   1.326       .  A
N711      Mn1043   2.220       .  S
N712        C714   1.361       .  A
Mn713      Cl726   2.541       .  S
C714        C860   1.472       .  S
C715       N1026   1.349       .  A
C715        C893   1.474       .  S
N716        N717   1.319       .  A
N716        N722   1.315       .  A
N716       Mn724   2.195       .  S
N717        C727   1.349       .  A
N718        N719   1.325       .  A
N718        N720   1.319       .  A
N718       Mn725   2.221       .  S
N719        C728   1.352       .  A
N720        N721   1.323       .  A
N720       Mn724   2.204       .  S
N721        C728   1.351       .  A
N722        N723   1.321       .  A
N722       Mn725   2.201       .  S
N723        C727   1.353       .  A
Mn724     Cl1044   2.547       .  S
Mn725      N1025   2.197       .  S
Mn725      N1029   2.220   1_554  S
Mn725     Cl1044   2.541       .  S
Cl726     Mn1042   2.547       .  S
Cl726     Mn1043   2.541       .  S
C727        C840   1.464       .  S
C728        C943   1.449       .  S
N729        N730   1.322       .  A
N729        N735   1.319       .  A
N729      Mn2030   2.201       .  S
N730        C737   1.349       .  A
N731        N733   1.314       .  A
N731        N732   1.322       .  A
N731       Mn747   2.200       .  S
N732        C738   1.352       .  A
N733        N734   1.319       .  A
N733      Mn2030   2.192       .  S
N734        C738   1.349       .  A
N735        N736   1.325       .  A
N735       Mn747   2.218       .  S
N736        C737   1.352       .  A
C737        C953   1.447       .  S
C738        C933   1.464       .  S
N739        N745   1.316       .  A
N739        N740   1.328       .  A
N739       Mn769   2.222       .  S
N740        C748   1.361       .  A
N741        N742   1.327       .  A
N741        N743   1.315       .  A
N741       Mn747   2.223       .  S
N742        C749   1.362       .  A
N743        N744   1.312       .  A
N743       Mn769   2.175       .  S
N744        C749   1.343       .  A
N745        N746   1.312       .  A
N745       Mn747   2.182       .  S
N746        C748   1.345       .  A
Mn747      Cl771   2.543       .  S
C748        C820   1.477       .  S
C749        C873   1.475       .  S
N750        N751   1.312       .  A
N750        N756   1.316       .  A
N750       Mn758   2.173       .  S
N751        C759   1.344       .  A
N752        N754   1.316       .  A
N752        N753   1.317       .  A
N752       Mn770   2.199       .  S
N753        C760   1.348       .  A
N754        N755   1.325       .  A
N754       Mn758   2.207       .  S
N755        C760   1.356       .  A
N756        N757   1.326       .  A
N756       Mn770   2.226       .  S
N757        C759   1.361       .  A
Mn758      N2001   2.201   1_455  S
Mn758      N2005   2.192   1_455  S
Mn758     Cl2043   2.543   1_455  S
C759        C863   1.473       .  S
C760        C830   1.470       .  S
N761        N762   1.317       .  A
N761        N767   1.315       .  A
N761      Mn2041   2.193   1_455  S
N762        C772   1.349       .  A
N763        N764   1.325       .  A
N763        N765   1.320       .  A
N763       Mn770   2.222       .  S
N764        C773   1.352       .  A
N765       N2038   1.323       .  A
N765      Mn2041   2.207   1_455  S
N766       N2037   1.323       .  A
N766       C2045   1.350       .  A
N767        N768   1.323       .  A
N767       Mn770   2.205       .  S
N768        C772   1.355       .  A
Mn769      N2033   2.193       .  S
Mn769      N2037   2.207       .  S
Mn769      Cl771   2.542       .  S
Mn770     Cl2043   2.548   1_455  S
Cl771     Mn2030   2.543       .  S
Cl771     Mn2042   2.548       .  S
C772        C923   1.473       .  S
C773       N2038   1.350       .  A
C773        C942   1.452       .  S
N774        N775   1.317       .  A
N774       Mn803   2.191       .  S
N775        C782   1.349       .  A
N776        N777   1.312       .  A
N776       Mn792   2.187       .  S
N778        N779   1.323       .  A
N778       Mn803   2.196       .  S
N779        C783   1.350       .  A
N780        N781   1.324       .  A
N780       Mn792   2.209   1_545  S
C782        C823   1.465       .  S
C783        C913   1.468       .  S
N784        N790   1.314       .  A
N784        N785   1.319       .  A
N784       Mn814   2.190       .  S
N785        C793   1.350       .  A
N786        N787   1.320       .  A
N786        N788   1.317       .  A
N786       Mn792   2.202       .  S
N787        C794   1.349       .  A
N788        N789   1.324       .  A
N788       Mn814   2.215       .  S
N789        C794   1.355       .  A
N790        N791   1.321       .  A
N790       Mn792   2.195       .  S
N791        C793   1.353       .  A
Mn792      Cl816   2.515       .  S
C793        C843   1.467       .  S
C794        C951   1.441       .  S
N795        N796   1.325       .  A
N795        N801   1.316       .  A
N795       Mn803   2.223       .  S
N796        C804   1.356       .  A
N797        N799   1.313       .  A
N797        N798   1.322       .  A
N797       Mn815   2.201       .  S
N798        C805   1.355       .  A
N799        N800   1.318       .  A
N799       Mn803   2.182       .  S
N800        C805   1.350       .  A
N801        N802   1.320       .  A
N801       Mn815   2.196       .  S
N802        C804   1.348       .  A
C804        C940   1.443       .  S
C805        C850   1.474       .  S
N806        N807   1.326       .  A
N806        N812   1.321   1_565  A
N806       Mn814   2.203       .  S
N807        C817   1.352       .  A
N808        N809   1.325       .  A
N808        N810   1.318       .  A
N809        C818   1.354       .  A
N810        N811   1.316       .  A
N810       Mn814   2.182       .  S
N811        C818   1.347       .  A
N812        N813   1.311       .  A
N813        C817   1.341   1_545  A
Mn814      Cl816   2.556       .  S
C817        C903   1.476       .  S
C818        C833   1.466       .  S
C819        C820   1.404       .  A
C819        C824   1.404       .  A
C819        H825   1.083       .  S
C820        C821   1.408       .  A
C821        C822   1.393       .  A
C821        H826   1.084       .  S
C822        C823   1.396       .  A
C822        H827   1.084       .  S
C823        C824   1.406       .  A
C824        H828   1.083       .  S
C829        C830   1.402       .  A
C829        C834   1.398       .  A
C829        H835   1.084       .  S
C830        C831   1.405       .  A
C831        C832   1.399       .  A
C831        H836   1.083       .  S
C832        C833   1.399       .  A
C832        H837   1.083       .  S
C833        C834   1.405       .  A
C834        H838   1.084       .  S
C839        C840   1.401       .  A
C839        C844   1.397       .  A
C839        H845   1.083       .  S
C840        C841   1.403       .  A
C841        C842   1.398       .  A
C841        H846   1.084       .  S
C842        C843   1.403       .  A
C842        H847   1.083       .  S
C843        C844   1.403       .  A
C844        H848   1.083       .  S
C849        C850   1.402       .  A
C849        C854   1.396       .  A
C849        H855   1.083       .  S
C850        C851   1.407       .  A
C851        C852   1.398       .  A
C851        H856   1.083       .  S
C852        C853   1.399       .  A
C852        H857   1.083       .  S
C853        C854   1.404       .  A
C854        H858   1.084       .  S
C859        C860   1.398       .  A
C859        C864   1.397       .  A
C859        H865   1.083       .  S
C860        C861   1.409       .  A
C861        C862   1.396       .  A
C861        H866   1.083       .  S
C862        C863   1.398       .  A
C862        H867   1.083       .  S
C863        C864   1.410       .  A
C864        H868   1.083       .  S
C869        C870   1.397       .  A
C869        C874   1.396       .  A
C869        H875   1.083       .  S
C870        C871   1.410       .  A
C871        C872   1.397       .  A
C871        H876   1.083       .  S
C872        C873   1.398       .  A
C872        H877   1.083       .  S
C873        C874   1.410       .  A
C874        H878   1.082       .  S
C879        C880   1.405       .  A
C879        C884   1.403       .  A
C879        H885   1.083       .  S
C880        C881   1.397       .  A
C881        C882   1.393       .  A
C881        H886   1.084       .  S
C882        C883   1.407       .  A
C882        H887   1.084       .  S
C883       C1021   1.477       .  S
C883        C884   1.404       .  A
C884       H1206   1.083       .  S
H888       C1202   1.083       .  S
C889       C1208   1.405       .  A
C889        C894   1.402       .  A
C889        H895   1.084       .  S
C890       C1207   1.405   1_554  A
C890        C891   1.398       .  A
C891        C892   1.395       .  A
C891        H896   1.083       .  S
C892       C1211   1.405       .  A
C892        H897   1.083       .  S
C893       C1210   1.405       .  A
C893        C894   1.404       .  A
C894        H898   1.083       .  S
C899        C900   1.394       .  A
C899        C904   1.385       .  A
C900        C901   1.409       .  A
C901        C902   1.404       .  A
C901        H906   1.083       .  S
C902        C903   1.403       .  A
C902        H907   1.083       .  S
C903        C904   1.409       .  A
C909        C910   1.410       .  A
C909        C914   1.401       .  A
C909        H915   1.084       .  S
C910        C911   1.392       .  A
C911        C912   1.387       .  A
C911        H916   1.083       .  S
C912        C913   1.409       .  A
C912        H917   1.083       .  S
C913        C914   1.399       .  A
C914        H918   1.083       .  S
C919       C2192   1.405       .  A
C919        C924   1.401       .  A
C919        H925   1.083       .  S
C920       C2191   1.405       .  A
C920        C921   1.399       .  A
C921        C922   1.394       .  A
C921        H926   1.084       .  S
C922       C2195   1.405       .  A
C922        H927   1.082       .  S
C923       C2194   1.405   1_455  A
C923        C924   1.403       .  A
C924        H928   1.083       .  S
C929        C930   1.402       .  A
C929        C934   1.399       .  A
C929        H935   1.083       .  S
C930        C931   1.404       .  A
C931        C932   1.396       .  A
C931        H936   1.083       .  S
C932        C933   1.399       .  A
C932        H937   1.083       .  S
C933        C934   1.403       .  A
C934        H938   1.083       .  S
C939        C940   1.211       .  T
C941        C942   1.216       .  T
C943        C944   1.215       .  T
C945        C946   1.211       .  T
C947        C948   1.210       .  T
C949        C950   1.214       .  T
C951        C952   1.210       .  T
C953        C954   1.213       .  T
C955       C1265   1.473       .  S
C955       C1267   1.479       .  S
C955       C1270   1.472       .  S
C955       C1272   1.478       .  S
C956       C1257   1.474       .  S
C956       C1259   1.483       .  S
C956       C1262   1.481       .  S
C956       C1263   1.474       .  S
N957        N958   1.316       .  A
N957        N963   1.317       .  A
N958        C965   1.349   1_554  A
N959        N960   1.314       .  A
N959       Mn975   2.189       .  S
N961        N962   1.321       .  A
N961       Mn986   2.185       .  S
N962        C966   1.348       .  A
N963        N964   1.324       .  A
N964        C965   1.353   1_554  A
C965       C1198   1.464       .  S
C966       C1228   1.456       .  S
N967        N973   1.314       .  A
N967        N968   1.319       .  A
N967      Mn1951   2.189       .  S
N968        C976   1.350       .  A
N969        N970   1.320       .  A
N969        N971   1.316       .  A
N970        C977   1.349       .  A
N971        N972   1.324       .  A
N971      Mn2269   2.221       .  S
N972        C977   1.355       .  A
N973        N974   1.321       .  A
N973       Mn975   2.201       .  S
N974        C976   1.354       .  A
C976       C1238   1.467       .  S
C977       C1266   1.442       .  S
N978        N979   1.324       .  A
N978       N2256   1.316       .  A
N978       Mn986   2.215       .  S
N979       C2259   1.354       .  A
N980       N2254   1.313   1_455  A
N980        N981   1.323       .  A
N980       Mn998   2.208       .  S
N981       C2260   1.356   1_455  A
N982       N2252   1.313       .  A
N982        N983   1.317       .  A
N983        C988   1.348       .  A
N984       N2250   1.316       .  A
N984        N985   1.321       .  A
N985        C987   1.350       .  A
C987       N2251   1.354       .  A
C987       C1264   1.443       .  S
C988       N2253   1.356       .  A
C988       C1248   1.470       .  S
N989        N990   1.323       .  A
N989        N995   1.319       .  A
N989       Mn997   2.191       .  S
N990       C1000   1.350       .  A
N991        N992   1.324       .  A
N991        N993   1.317       .  A
N992       C1001   1.354       .  A
N993        N994   1.316       .  A
N994       C1001   1.348       .  A
Mn997      N1921   2.189   1_456  S
Mn997      N2243   2.221   1_455  S
Mn997     Cl2271   2.543   1_456  S
Mn998     Cl1635   2.529   1_456  S
Cl999     Mn2269   2.543   1_554  S
Cl999     Mn1634   2.529   1_564  S
C1000      C1218   1.461       .  S
C1001      C1208   1.464       .  S
N1002      N1003   1.322       .  A
N1002      N1008   1.318       .  A
N1002     Mn1031   2.206       .  S
N1003      C1010   1.351       .  A
N1004      N1006   1.315       .  A
N1004      N1005   1.323       .  A
N1004     Mn1020   2.206       .  S
N1005      C1011   1.354       .  A
N1006      N1007   1.317       .  A
N1006     Mn1031   2.187       .  S
N1007      C1011   1.348       .  A
N1008      N1009   1.324       .  A
N1008     Mn1020   2.215       .  S
N1009      C1010   1.352       .  A
C1010      C1268   1.448       .  S
C1011      C1171   1.466       .  S
N1012      N1013   1.327       .  A
N1012     Mn1042   2.217       .  S
N1013      C1021   1.360       .  A
N1014      N1015   1.327       .  A
N1014      N1016   1.316       .  A
N1015      C1022   1.361       .  A
N1016      N1017   1.312       .  A
N1016     Mn1042   2.174       .  S
N1017      C1022   1.343       .  A
N1018      N1019   1.313       .  A
N1018     Mn1020   2.188       .  S
Mn1020    Cl1044   2.546   1_556  S
C1022      C1188   1.472       .  S
N1023      N1024   1.312       .  A
N1023      N1029   1.315       .  A
N1023     Mn1031   2.175       .  S
N1024      C1032   1.344       .  A
N1025      N1027   1.315   1_554  A
N1027      N1028   1.325       .  A
N1027     Mn1031   2.204       .  S
N1028      C1033   1.357       .  A
N1029      N1030   1.326       .  A
N1030      C1032   1.361       .  A
Mn1031    Cl1044   2.541   1_556  S
C1032      C1178   1.472       .  S
C1033      C1211   1.474   1_556  S
N1034      N1035   1.319       .  A
N1034      N1040   1.315       .  A
N1034     Mn1042   2.195       .  S
N1035      C1045   1.349       .  A
N1036      N1037   1.325       .  A
N1036      N1038   1.319       .  A
N1036     Mn1043   2.221       .  S
N1037      C1046   1.352       .  A
N1038      N1039   1.323       .  A
N1038     Mn1042   2.204       .  S
N1039      C1046   1.351       .  A
N1040      N1041   1.321       .  A
N1040     Mn1043   2.201       .  S
N1041      C1045   1.353       .  A
C1045      C1158   1.464       .  S
C1046      C1261   1.449       .  S
N1047      N1048   1.322       .  A
N1047      N1053   1.319       .  A
N1047     Mn2348   2.201       .  S
N1048      C1055   1.349       .  A
N1049      N1051   1.314       .  A
N1049      N1050   1.322       .  A
N1049     Mn1065   2.200       .  S
N1050      C1056   1.352       .  A
N1051      N1052   1.319       .  A
N1051     Mn2348   2.192       .  S
N1052      C1056   1.349       .  A
N1053      N1054   1.325       .  A
N1053     Mn1065   2.218       .  S
N1054      C1055   1.352       .  A
C1055      C1271   1.447       .  S
C1056      C1251   1.464       .  S
N1057      N1063   1.316       .  A
N1057      N1058   1.328       .  A
N1057     Mn1087   2.222       .  S
N1058      C1066   1.361       .  A
N1059      N1060   1.327       .  A
N1059      N1061   1.315       .  A
N1059     Mn1065   2.223       .  S
N1060      C1067   1.362       .  A
N1061      N1062   1.312       .  A
N1061     Mn1087   2.175       .  S
N1062      C1067   1.343       .  A
N1063      N1064   1.312       .  A
N1063     Mn1065   2.182       .  S
N1064      C1066   1.345       .  A
Mn1065    Cl1089   2.543       .  S
C1066      C1138   1.477       .  S
C1067      C1191   1.475       .  S
N1068      N1069   1.312       .  A
N1068      N1074   1.316       .  A
N1068     Mn1076   2.173       .  S
N1069      C1077   1.344       .  A
N1070      N1072   1.316       .  A
N1070      N1071   1.317       .  A
N1070     Mn1088   2.199       .  S
N1071      C1078   1.348       .  A
N1072      N1073   1.325       .  A
N1072     Mn1076   2.207       .  S
N1073      C1078   1.356       .  A
N1074      N1075   1.326       .  A
N1074     Mn1088   2.226       .  S
N1075      C1077   1.361       .  A
Mn1076     N2319   2.201   1_455  S
Mn1076     N2323   2.192   1_455  S
Mn1076    Cl2361   2.543   1_455  S
C1077      C1181   1.473       .  S
C1078      C1148   1.470       .  S
N1079      N1080   1.317       .  A
N1079      N1085   1.315       .  A
N1079     Mn2359   2.193   1_455  S
N1080      C1090   1.349       .  A
N1081      N1082   1.325       .  A
N1081      N1083   1.320       .  A
N1081     Mn1088   2.222       .  S
N1082      C1091   1.352       .  A
N1083      N2356   1.323       .  A
N1083     Mn2359   2.207   1_455  S
N1084      N2355   1.323       .  A
N1084      C2363   1.350       .  A
N1085      N1086   1.323       .  A
N1085     Mn1088   2.205       .  S
N1086      C1090   1.355       .  A
Mn1087     N2351   2.193       .  S
Mn1087     N2355   2.207       .  S
Mn1087    Cl1089   2.542       .  S
Mn1088    Cl2361   2.548   1_455  S
Cl1089    Mn2348   2.543       .  S
Cl1089    Mn2360   2.548       .  S
C1090      C1241   1.473       .  S
C1091      N2356   1.350       .  A
C1091      C1260   1.452       .  S
N1092      N1093   1.317       .  A
N1092     Mn1121   2.191       .  S
N1093      C1100   1.349       .  A
N1094      N1095   1.312       .  A
N1094     Mn1110   2.187       .  S
N1096      N1097   1.323       .  A
N1096     Mn1121   2.196       .  S
N1097      C1101   1.350       .  A
N1098      N1099   1.324       .  A
N1098     Mn1110   2.209   1_545  S
C1100      C1141   1.465       .  S
C1101      C1231   1.468       .  S
N1102      N1108   1.314       .  A
N1102      N1103   1.319       .  A
N1102     Mn1132   2.190       .  S
N1103      C1111   1.350       .  A
N1104      N1105   1.320       .  A
N1104      N1106   1.317       .  A
N1104     Mn1110   2.202       .  S
N1105      C1112   1.349       .  A
N1106      N1107   1.324       .  A
N1106     Mn1132   2.215       .  S
N1107      C1112   1.355       .  A
N1108      N1109   1.321       .  A
N1108     Mn1110   2.195       .  S
N1109      C1111   1.353       .  A
Mn1110    Cl1134   2.515       .  S
C1111      C1161   1.467       .  S
C1112      C1269   1.441       .  S
N1113      N1114   1.325       .  A
N1113      N1119   1.316       .  A
N1113     Mn1121   2.223       .  S
N1114      C1122   1.356       .  A
N1115      N1117   1.313       .  A
N1115      N1116   1.322       .  A
N1115     Mn1133   2.201       .  S
N1116      C1123   1.355       .  A
N1117      N1118   1.318       .  A
N1117     Mn1121   2.182       .  S
N1118      C1123   1.350       .  A
N1119      N1120   1.320       .  A
N1119     Mn1133   2.196       .  S
N1120      C1122   1.348       .  A
C1122      C1258   1.443       .  S
C1123      C1168   1.474       .  S
N1124      N1125   1.326       .  A
N1124      N1130   1.321   1_565  A
N1124     Mn1132   2.203       .  S
N1125      C1135   1.352       .  A
N1126      N1127   1.325       .  A
N1126      N1128   1.318       .  A
N1127      C1136   1.354       .  A
N1128      N1129   1.316       .  A
N1128     Mn1132   2.182       .  S
N1129      C1136   1.347       .  A
N1130      N1131   1.311       .  A
N1131      C1135   1.341   1_545  A
Mn1132    Cl1134   2.556       .  S
C1135      C1221   1.476       .  S
C1136      C1151   1.466       .  S
C1137      C1138   1.404       .  A
C1137      C1142   1.404       .  A
C1137      H1143   1.083       .  S
C1138      C1139   1.408       .  A
C1139      C1140   1.393       .  A
C1139      H1144   1.084       .  S
C1140      C1141   1.396       .  A
C1140      H1145   1.084       .  S
C1141      C1142   1.406       .  A
C1142      H1146   1.083       .  S
C1147      C1148   1.402       .  A
C1147      C1152   1.398       .  A
C1147      H1153   1.084       .  S
C1148      C1149   1.405       .  A
C1149      C1150   1.399       .  A
C1149      H1154   1.083       .  S
C1150      C1151   1.399       .  A
C1150      H1155   1.083       .  S
C1151      C1152   1.405       .  A
C1152      H1156   1.084       .  S
C1157      C1158   1.401       .  A
C1157      C1162   1.397       .  A
C1157      H1163   1.083       .  S
C1158      C1159   1.403       .  A
C1159      C1160   1.398       .  A
C1159      H1164   1.084       .  S
C1160      C1161   1.403       .  A
C1160      H1165   1.083       .  S
C1161      C1162   1.403       .  A
C1162      H1166   1.083       .  S
C1167      C1168   1.402       .  A
C1167      C1172   1.396       .  A
C1167      H1173   1.083       .  S
C1168      C1169   1.407       .  A
C1169      C1170   1.398       .  A
C1169      H1174   1.083       .  S
C1170      C1171   1.399       .  A
C1170      H1175   1.083       .  S
C1171      C1172   1.404       .  A
C1172      H1176   1.084       .  S
C1177      C1178   1.398       .  A
C1177      C1182   1.397       .  A
C1177      H1183   1.083       .  S
C1178      C1179   1.409       .  A
C1179      C1180   1.396       .  A
C1179      H1184   1.083       .  S
C1180      C1181   1.398       .  A
C1180      H1185   1.083       .  S
C1181      C1182   1.410       .  A
C1182      H1186   1.083       .  S
C1187      C1188   1.397       .  A
C1187      C1192   1.396       .  A
C1187      H1193   1.083       .  S
C1188      C1189   1.410       .  A
C1189      C1190   1.397       .  A
C1189      H1194   1.083       .  S
C1190      C1191   1.398       .  A
C1190      H1195   1.083       .  S
C1191      C1192   1.410       .  A
C1192      H1196   1.082       .  S
C1197      C1198   1.405   1_554  A
C1197      C1202   1.403       .  A
C1197      H1203   1.083       .  S
C1198      C1199   1.397       .  A
C1199      C1200   1.393       .  A
C1199      H1204   1.084       .  S
C1200      C1201   1.407       .  A
C1200      H1205   1.084       .  S
C1201      C1202   1.404   1_556  A
C1207      C1212   1.402       .  A
C1207      H1213   1.084       .  S
C1208      C1209   1.398       .  A
C1209      C1210   1.395       .  A
C1209      H1214   1.083       .  S
C1210      H1215   1.083       .  S
C1211      C1212   1.404   1_554  A
C1212      H1216   1.083       .  S
C1217      C1218   1.394       .  A
C1217      C1222   1.385       .  A
C1218      C1219   1.409       .  A
C1219      C1220   1.404       .  A
C1219      H1224   1.083       .  S
C1220      C1221   1.403       .  A
C1220      H1225   1.083       .  S
C1221      C1222   1.409       .  A
C1227      C1228   1.410       .  A
C1227      C1232   1.401       .  A
C1227      H1233   1.084       .  S
C1228      C1229   1.392       .  A
C1229      C1230   1.387       .  A
C1229      H1234   1.083       .  S
C1230      C1231   1.409       .  A
C1230      H1235   1.083       .  S
C1231      C1232   1.399       .  A
C1232      H1236   1.083       .  S
C1237      C2510   1.405       .  A
C1237      C1242   1.401       .  A
C1237      H1243   1.083       .  S
C1238      C2509   1.405       .  A
C1238      C1239   1.399       .  A
C1239      C1240   1.394       .  A
C1239      H1244   1.084       .  S
C1240      C2513   1.405       .  A
C1240      H1245   1.082       .  S
C1241      C2512   1.405   1_455  A
C1241      C1242   1.403       .  A
C1242      H1246   1.083       .  S
C1247      C1248   1.402       .  A
C1247      C1252   1.399       .  A
C1247      H1253   1.083       .  S
C1248      C1249   1.404       .  A
C1249      C1250   1.396       .  A
C1249      H1254   1.083       .  S
C1250      C1251   1.399       .  A
C1250      H1255   1.083       .  S
C1251      C1252   1.403       .  A
C1252      H1256   1.083       .  S
C1257      C1258   1.211       .  T
C1259      C1260   1.216       .  T
C1261      C1262   1.215       .  T
C1263      C1264   1.211       .  T
C1265      C1266   1.210       .  T
C1267      C1268   1.214       .  T
C1269      C1270   1.210       .  T
C1271      C1272   1.213       .  T
C1273      C1583   1.473       .  S
C1273      C1585   1.479       .  S
C1273      C1588   1.472       .  S
C1273      C1590   1.478       .  S
C1274      C1575   1.474       .  S
C1274      C1577   1.483       .  S
C1274      C1580   1.481       .  S
C1274      C1581   1.474       .  S
N1275      N1276   1.316       .  A
N1275      N1281   1.317       .  A
N1275     Mn1622   2.195       .  S
N1276      C1283   1.349       .  A
N1277      N1915   1.319       .  A
N1277      N1278   1.314       .  A
N1277     Mn1293   2.189       .  S
N1278      C1920   1.346       .  A
N1279      N1913   1.319   1_545  A
N1279      N1280   1.321       .  A
N1279     Mn1304   2.185       .  S
N1280      C1284   1.348       .  A
N1281      N1282   1.324       .  A
N1281     Mn2247   2.208   1_545  S
N1282      C1283   1.353       .  A
C1283      C1516   1.464       .  S
C1284      N1914   1.346   1_545  A
C1284      C1546   1.456       .  S
N1285      N1291   1.314       .  A
N1285      N1286   1.319   1_655  A
N1286      C1294   1.350   1_455  A
N1287      N1288   1.320       .  A
N1287      N1289   1.316       .  A
N1287     Mn1611   2.195       .  S
N1288      C1295   1.349       .  A
N1289      N1290   1.324       .  A
N1290      C1295   1.355       .  A
N1291      N1292   1.321       .  A
N1291     Mn1293   2.201       .  S
N1292      C1294   1.354       .  A
Mn1293     N2235   2.208       .  S
Mn1293     N1605   2.195   1_554  S
Mn1293    Cl1635   2.535       .  S
C1294      C1556   1.467   1_655  S
C1295      C1584   1.442       .  S
N1296      N1297   1.324       .  A
N1296     Mn1304   2.215   1_455  S
N1298      N1299   1.323       .  A
N1298     Mn1316   2.208       .  S
N1300      N1301   1.317       .  A
N1300     Mn1622   2.180       .  S
N1301      C1306   1.348       .  A
N1302      N1303   1.321       .  A
N1302     Mn1634   2.205   1_554  S
N1303      C1305   1.350       .  A
Mn1304     N1593   2.195       .  S
Mn1304     N1618   2.180   1_554  S
Mn1304    Cl2271   2.543   1_545  S
C1305      C1582   1.443       .  S
C1306      C1566   1.470       .  S
N1307      N1308   1.323       .  A
N1307      N1313   1.319       .  A
N1307     Mn1315   2.191       .  S
N1308      C1318   1.350       .  A
N1309      N1310   1.324   1_556  A
N1309      N1311   1.317       .  A
N1309     Mn2270   2.212       .  S
N1310      C1319   1.354       .  A
N1311      N1312   1.316   1_556  A
N1311     Mn1633   2.188       .  S
N1312      C1319   1.348       .  A
N1313      N1950   1.313       .  A
N1313     Mn1952   2.187       .  S
N1314      N1949   1.313   1_545  A
N1314      C1954   1.346   1_545  A
Mn1315     N1629   2.188       .  S
Mn1316     N1620   2.205       .  S
Mn1316     N2263   2.212   1_545  S
Mn1316     N1949   2.187   1_545  S
Cl1317    Mn1611   2.535       .  S
Cl1317    Mn2258   2.543       .  S
C1318      N1950   1.346       .  A
C1318      C1536   1.461       .  S
C1319      C1526   1.464       .  S
N1320      N1321   1.322       .  A
N1320      N1326   1.318       .  A
N1320     Mn1349   2.206       .  S
N1321      C1328   1.351       .  A
N1322      N1324   1.315       .  A
N1322      N1323   1.323       .  A
N1322     Mn1338   2.206       .  S
N1323      C1329   1.354       .  A
N1324      N1325   1.317       .  A
N1324     Mn1349   2.187       .  S
N1325      C1329   1.348       .  A
N1326      N1327   1.324       .  A
N1326     Mn1338   2.215       .  S
N1327      C1328   1.352       .  A
C1328      C1586   1.448       .  S
C1329      C1489   1.466       .  S
N1330      N1654   1.316   1_554  A
N1330      N1331   1.327       .  A
N1330     Mn1360   2.217       .  S
N1331      C1339   1.360       .  A
N1332      N1333   1.327       .  A
N1332      N1334   1.316       .  A
N1332     Mn1656   2.224   1_554  S
N1333      C1340   1.361       .  A
N1334      N1335   1.312       .  A
N1334     Mn1360   2.174       .  S
N1335      C1340   1.343       .  A
N1336      N1648   1.316       .  A
N1336      N1337   1.313       .  A
N1336     Mn1338   2.188       .  S
N1337      C1657   1.346       .  A
Mn1338     N1650   2.224       .  S
Mn1338    Cl1362   2.546       .  S
C1339      N1655   1.346   1_554  A
C1339      C1837   1.477   1_554  S
C1340      C1506   1.472       .  S
N1341      N1342   1.312       .  A
N1341      N1347   1.315       .  A
N1341     Mn1349   2.175       .  S
N1342      C1350   1.344       .  A
N1343      N1345   1.315       .  A
N1343      N1662   1.315       .  A
N1343     Mn1679   2.197       .  S
N1344      N1661   1.315       .  A
N1344      C1669   1.349   1_554  A
N1345      N1346   1.325       .  A
N1345     Mn1349   2.204       .  S
N1346      C1351   1.357       .  A
N1347      N1348   1.326       .  A
N1347     Mn1679   2.220       .  S
N1348      C1350   1.361       .  A
Mn1349    Cl1362   2.541       .  S
C1350      C1496   1.472       .  S
C1351      N1662   1.349       .  A
C1351      C1529   1.474       .  S
N1352      N1353   1.319       .  A
N1352      N1358   1.315       .  A
N1352     Mn1360   2.195       .  S
N1353      C1363   1.349       .  A
N1354      N1355   1.325       .  A
N1354      N1356   1.319       .  A
N1354     Mn1361   2.221       .  S
N1355      C1364   1.352       .  A
N1356      N1357   1.323       .  A
N1356     Mn1360   2.204       .  S
N1357      C1364   1.351       .  A
N1358      N1359   1.321       .  A
N1358     Mn1361   2.201       .  S
N1359      C1363   1.353       .  A
Mn1360    Cl1680   2.547       .  S
Mn1361     N1661   2.197       .  S
Mn1361     N1665   2.220   1_554  S
Mn1361    Cl1680   2.541       .  S
Cl1362    Mn1678   2.547       .  S
Cl1362    Mn1679   2.541       .  S
C1363      C1476   1.464       .  S
C1364      C1579   1.449       .  S
N1365      N1366   1.322       .  A
N1365      N1371   1.319       .  A
N1366      C1373   1.349       .  A
N1367      N1369   1.314       .  A
N1367      N1368   1.322       .  A
N1367     Mn1383   2.200       .  S
N1368      C1374   1.352       .  A
N1369      N1370   1.319       .  A
N1370      C1374   1.349       .  A
N1371      N1372   1.325       .  A
N1371     Mn1383   2.218       .  S
N1372      C1373   1.352       .  A
C1373      C1589   1.447       .  S
C1374      C1569   1.464       .  S
N1375      N1381   1.316       .  A
N1375      N1376   1.328       .  A
N1375     Mn1405   2.222       .  S
N1376      C1384   1.361       .  A
N1377      N1378   1.327       .  A
N1377      N1379   1.315       .  A
N1377     Mn1383   2.223       .  S
N1378      C1385   1.362       .  A
N1379      N1380   1.312       .  A
N1379     Mn1405   2.175       .  S
N1380      C1385   1.343       .  A
N1381      N1382   1.312       .  A
N1381     Mn1383   2.182       .  S
N1382      C1384   1.345       .  A
Mn1383    Cl1407   2.543       .  S
C1384      C1456   1.477       .  S
C1385      C1509   1.475       .  S
N1386      N1387   1.312       .  A
N1386      N1392   1.316       .  A
N1386     Mn1394   2.173       .  S
N1387      C1395   1.344       .  A
N1388      N1390   1.316       .  A
N1388      N1389   1.317       .  A
N1388     Mn1406   2.199       .  S
N1389      C1396   1.348       .  A
N1390      N1391   1.325       .  A
N1390     Mn1394   2.207       .  S
N1391      C1396   1.356       .  A
N1392      N1393   1.326       .  A
N1392     Mn1406   2.226       .  S
N1393      C1395   1.361       .  A
C1395      C1499   1.473       .  S
C1396      C1466   1.470       .  S
N1397      N1398   1.317       .  A
N1397      N1403   1.315       .  A
N1398      C1408   1.349       .  A
N1399      N1400   1.325       .  A
N1399      N1401   1.320       .  A
N1399     Mn1406   2.222       .  S
N1400      C1409   1.352       .  A
N1403      N1404   1.323       .  A
N1403     Mn1406   2.205       .  S
N1404      C1408   1.355       .  A
Mn1405    Cl1407   2.542       .  S
C1408      C1559   1.473       .  S
C1409      C1578   1.452       .  S
N1410      N1411   1.317       .  A
N1410      N2052   1.316       .  A
N1410     Mn1439   2.191       .  S
N1411      C1418   1.349       .  A
N1412      N2050   1.321       .  A
N1412      N1413   1.312       .  A
N1412     Mn1428   2.187       .  S
N1413      C2055   1.344       .  A
N1414      N2048   1.321   1_545  A
N1414      N1415   1.323       .  A
N1414     Mn1439   2.196       .  S
N1415      C1419   1.350       .  A
N1416      N2046   1.316       .  A
N1416      N1417   1.324       .  A
N1416     Mn1428   2.209       .  S
N1417      C2054   1.353       .  A
C1418      N2053   1.353       .  A
C1418      C1459   1.465       .  S
C1419      N2049   1.344   1_545  A
C1419      C1549   1.468       .  S
N1420      N1426   1.314       .  A
N1420      N1421   1.319       .  A
N1420     Mn1450   2.190       .  S
N1421      C1429   1.350       .  A
N1422      N1423   1.320       .  A
N1422      N1424   1.317       .  A
N1422     Mn1428   2.202       .  S
N1423      C1430   1.349       .  A
N1424      N1425   1.324       .  A
N1424     Mn1450   2.215       .  S
N1425      C1430   1.355       .  A
N1426      N1427   1.321       .  A
N1426     Mn1428   2.195       .  S
N1427      C1429   1.353       .  A
Mn1428    Cl1452   2.515       .  S
C1429      C1479   1.467       .  S
C1430      C1587   1.441       .  S
N1431      N1432   1.325       .  A
N1431      N1437   1.316       .  A
N1431     Mn1439   2.223       .  S
N1432      C1440   1.356       .  A
N1433      N1435   1.313       .  A
N1433      N1434   1.322       .  A
N1433     Mn1451   2.201       .  S
N1434      C1441   1.355       .  A
N1435      N1436   1.318       .  A
N1435     Mn1439   2.182       .  S
N1436      C1441   1.350       .  A
N1437      N1438   1.320       .  A
N1437     Mn1451   2.196       .  S
N1438      C1440   1.348       .  A
Mn1439    Cl2088   2.550   1_545  S
C1440      C1576   1.443       .  S
C1441      C1486   1.474       .  S
N1442      N1443   1.326       .  A
N1442      N1448   1.321       .  A
N1442     Mn1450   2.203       .  S
N1443      C1453   1.352       .  A
N1444      N1445   1.325       .  A
N1444      N1446   1.318       .  A
N1444     Mn2087   2.222       .  S
N1445      C1454   1.354       .  A
N1446      N1447   1.316       .  A
N1446     Mn1450   2.182       .  S
N1447      C1454   1.347       .  A
N1448      N1449   1.311       .  A
N1448     Mn2087   2.182       .  S
N1449      C1453   1.341       .  A
Mn1450    Cl1452   2.556       .  S
Mn1451     N2080   2.222   1_545  S
Mn1451     N2084   2.182       .  S
Mn1451    Cl2088   2.512   1_545  S
Cl1452    Mn2075   2.550       .  S
Cl1452    Mn2087   2.512       .  S
C1453      C1539   1.476       .  S
C1454      C1469   1.466       .  S
C1455      C1456   1.404       .  A
C1455      C1460   1.404       .  A
C1455      H1461   1.083       .  S
C1456      C1457   1.408       .  A
C1457      C1458   1.393       .  A
C1457      H1462   1.084       .  S
C1458      C1459   1.396       .  A
C1458      H1463   1.084       .  S
C1459      C1460   1.406       .  A
C1460      H1464   1.083       .  S
C1465      C1466   1.402       .  A
C1465      C1470   1.398       .  A
C1465      H1471   1.084       .  S
C1466      C1467   1.405       .  A
C1467      C1468   1.399       .  A
C1467      H1472   1.083       .  S
C1468      C1469   1.399       .  A
C1468      H1473   1.083       .  S
C1469      C1470   1.405       .  A
C1470      H1474   1.084       .  S
C1475      C1476   1.401       .  A
C1475      C1480   1.397       .  A
C1475      H1481   1.083       .  S
C1476      C1477   1.403       .  A
C1477      C1478   1.398       .  A
C1477      H1482   1.084       .  S
C1478      C1479   1.403       .  A
C1478      H1483   1.083       .  S
C1479      C1480   1.403       .  A
C1480      H1484   1.083       .  S
C1485      C1486   1.402       .  A
C1485      C1490   1.396       .  A
C1485      H1491   1.083       .  S
C1486      C1487   1.407       .  A
C1487      C1488   1.398       .  A
C1487      H1492   1.083       .  S
C1488      C1489   1.399       .  A
C1488      H1493   1.083       .  S
C1489      C1490   1.404       .  A
C1490      H1494   1.084       .  S
C1495      C1496   1.398       .  A
C1495      C1500   1.397       .  A
C1495      H1501   1.083       .  S
C1496      C1497   1.409       .  A
C1497      C1498   1.396       .  A
C1497      H1502   1.083       .  S
C1498      C1499   1.398       .  A
C1498      H1503   1.083       .  S
C1499      C1500   1.410       .  A
C1500      H1504   1.083       .  S
C1505      C1506   1.397       .  A
C1505      C1510   1.396       .  A
C1505      H1511   1.083       .  S
C1506      C1507   1.410       .  A
C1507      C1508   1.397       .  A
C1507      H1512   1.083       .  S
C1508      C1509   1.398       .  A
C1508      H1513   1.083       .  S
C1509      C1510   1.410       .  A
C1510      H1514   1.082       .  S
C1515      C1516   1.405       .  A
C1515      C1520   1.403       .  A
C1515      H1521   1.083       .  S
C1516      C1517   1.397       .  A
C1517      C1518   1.393       .  A
C1517      H1522   1.084       .  S
C1518      C1519   1.407       .  A
C1518      H1523   1.084       .  S
C1519      C1657   1.477       .  S
C1519      C1520   1.404       .  A
C1520      H1842   1.083       .  S
H1524      C1838   1.083       .  S
C1525      C1844   1.405       .  A
C1525      C1530   1.402       .  A
C1525      H1531   1.084       .  S
C1526      C1843   1.405   1_554  A
C1526      C1527   1.398       .  A
C1527      C1528   1.395       .  A
C1527      H1532   1.083       .  S
C1528      C1847   1.405       .  A
C1528      H1533   1.083       .  S
C1529      C1846   1.405       .  A
C1529      C1530   1.404       .  A
C1530      H1534   1.083       .  S
C1535      C1536   1.394       .  A
C1535      C1540   1.385       .  A
C1535      H2177   1.084       .  S
C1536      C1537   1.409       .  A
C1537      C1538   1.404       .  A
C1537      H1542   1.083       .  S
C1538      C1539   1.403       .  A
C1538      H1543   1.083       .  S
C1539      C1540   1.409       .  A
C1540      H2180   1.083       .  S
H1541      C2171   1.084   1_545  S
H1544      C2176   1.083   1_545  S
C1545      C1546   1.410       .  A
C1545      C1550   1.401       .  A
C1545      H1551   1.084       .  S
C1546      C1547   1.392       .  A
C1547      C1548   1.387       .  A
C1547      H1552   1.083   1_545  S
C1548      C1549   1.409       .  A
C1548      H1553   1.083   1_545  S
C1549      C1550   1.399       .  A
C1550      H1554   1.083       .  S
C1555      C1560   1.401       .  A
C1555      H1561   1.083       .  S
C1556      C1557   1.399   1_455  A
C1557      C1558   1.394       .  A
C1557      H1562   1.084       .  S
C1558      H1563   1.082       .  S
C1559      C1560   1.403       .  A
C1560      H1564   1.083       .  S
C1565      C1566   1.402       .  A
C1565      C1570   1.399       .  A
C1565      H1571   1.083       .  S
C1566      C1567   1.404       .  A
C1567      C1568   1.396       .  A
C1567      H1572   1.083       .  S
C1568      C1569   1.399       .  A
C1568      H1573   1.083       .  S
C1569      C1570   1.403       .  A
C1570      H1574   1.083       .  S
C1575      C1576   1.211       .  T
C1577      C1578   1.216       .  T
C1579      C1580   1.215       .  T
C1581      C1582   1.211       .  T
C1583      C1584   1.210       .  T
C1585      C1586   1.214       .  T
C1587      C1588   1.210       .  T
C1589      C1590   1.213       .  T
C1591      C1901   1.473       .  S
C1591      C1903   1.479       .  S
C1591      C1906   1.472       .  S
C1591      C1908   1.478       .  S
C1592      C1893   1.474       .  S
C1592      C1895   1.483       .  S
C1592      C1898   1.481       .  S
C1592      C1899   1.474       .  S
N1593      N1594   1.316       .  A
N1593      N1599   1.317       .  A
N1594      C1601   1.349   1_554  A
N1595      N2233   1.319       .  A
N1595      N1596   1.314       .  A
N1595     Mn1611   2.189       .  S
N1596      C2238   1.346       .  A
N1597      N2231   1.319   1_545  A
N1597      N1598   1.321       .  A
N1597     Mn1622   2.185       .  S
N1598      C1602   1.348       .  A
N1599      N1600   1.324       .  A
N1599     Mn1929   2.208   1_545  S
N1600      C1601   1.353   1_554  A
C1601      C1834   1.464       .  S
C1602      N2232   1.346   1_545  A
C1602      C1864   1.456       .  S
N1603      N1609   1.314       .  A
N1603      N1604   1.319   1_655  A
N1604      C1612   1.350   1_455  A
N1605      N1606   1.320       .  A
N1605      N1607   1.316       .  A
N1606      C1613   1.349       .  A
N1607      N1608   1.324       .  A
N1608      C1613   1.355       .  A
N1609      N1610   1.321       .  A
N1609     Mn1611   2.201       .  S
N1610      C1612   1.354       .  A
Mn1611     N1917   2.208       .  S
C1612      C1874   1.467   1_655  S
C1613      C1902   1.442       .  S
N1614      N1615   1.324       .  A
N1614     Mn1622   2.215   1_455  S
N1616      N1617   1.323       .  A
N1616     Mn1634   2.208       .  S
N1618      N1619   1.317       .  A
N1619      C1624   1.348       .  A
N1620      N1621   1.321       .  A
N1621      C1623   1.350       .  A
Mn1622    Cl1953   2.543   1_545  S
C1623      C1900   1.443       .  S
C1624      C1884   1.470       .  S
N1625      N1626   1.323       .  A
N1625      N1631   1.319       .  A
N1625     Mn1633   2.191       .  S
N1626      C1636   1.350       .  A
N1627      N1628   1.324       .  A
N1627      N1629   1.317       .  A
N1627     Mn1952   2.212       .  S
N1628      C1637   1.354       .  A
N1629      N1630   1.316       .  A
N1630      C1637   1.348       .  A
N1631      N2268   1.313       .  A
N1631     Mn2270   2.187       .  S
N1632      N2267   1.313   1_545  A
N1632      C2272   1.346   1_545  A
Mn1634     N1945   2.212   1_545  S
Mn1634     N2267   2.187   1_545  S
Cl1635    Mn1940   2.543       .  S
C1636      N2268   1.346       .  A
C1636      C1854   1.461       .  S
C1637      C1844   1.464       .  S
N1638      N1639   1.322       .  A
N1638      N1644   1.318       .  A
N1638     Mn1667   2.206       .  S
N1639      C1646   1.351       .  A
N1640      N1642   1.315       .  A
N1640      N1641   1.323       .  A
N1640     Mn1656   2.206       .  S
N1641      C1647   1.354       .  A
N1642      N1643   1.317       .  A
N1642     Mn1667   2.187       .  S
N1643      C1647   1.348       .  A
N1644      N1645   1.324       .  A
N1644     Mn1656   2.215       .  S
N1645      C1646   1.352       .  A
C1646      C1904   1.448       .  S
C1647      C1807   1.466       .  S
N1648      N1649   1.327       .  A
N1648     Mn1678   2.217       .  S
N1649      C1657   1.360       .  A
N1650      N1651   1.327       .  A
N1650      N1652   1.316       .  A
N1651      C1658   1.361       .  A
N1652      N1653   1.312       .  A
N1652     Mn1678   2.174       .  S
N1653      C1658   1.343       .  A
N1654      N1655   1.313       .  A
N1654     Mn1656   2.188       .  S
Mn1656    Cl1680   2.546   1_556  S
C1658      C1824   1.472       .  S
N1659      N1660   1.312       .  A
N1659      N1665   1.315       .  A
N1659     Mn1667   2.175       .  S
N1660      C1668   1.344       .  A
N1661      N1663   1.315   1_554  A
N1663      N1664   1.325       .  A
N1663     Mn1667   2.204       .  S
N1664      C1669   1.357       .  A
N1665      N1666   1.326       .  A
N1666      C1668   1.361       .  A
Mn1667    Cl1680   2.541   1_556  S
C1668      C1814   1.472       .  S
C1669      C1847   1.474   1_556  S
N1670      N1671   1.319       .  A
N1670      N1676   1.315       .  A
N1670     Mn1678   2.195       .  S
N1671      C1681   1.349       .  A
N1672      N1673   1.325       .  A
N1672      N1674   1.319       .  A
N1672     Mn1679   2.221       .  S
N1673      C1682   1.352       .  A
N1674      N1675   1.323       .  A
N1674     Mn1678   2.204       .  S
N1675      C1682   1.351       .  A
N1676      N1677   1.321       .  A
N1676     Mn1679   2.201       .  S
N1677      C1681   1.353       .  A
C1681      C1794   1.464       .  S
C1682      C1897   1.449       .  S
N1683      N1684   1.322       .  A
N1683      N1689   1.319       .  A
N1684      C1691   1.349       .  A
N1685      N1687   1.314       .  A
N1685      N1686   1.322       .  A
N1685     Mn1701   2.200       .  S
N1686      C1692   1.352       .  A
N1687      N1688   1.319       .  A
N1688      C1692   1.349       .  A
N1689      N1690   1.325       .  A
N1689     Mn1701   2.218       .  S
N1690      C1691   1.352       .  A
C1691      C1907   1.447       .  S
C1692      C1887   1.464       .  S
N1693      N1699   1.316       .  A
N1693      N1694   1.328       .  A
N1693     Mn1723   2.222       .  S
N1694      C1702   1.361       .  A
N1695      N1696   1.327       .  A
N1695      N1697   1.315       .  A
N1695     Mn1701   2.223       .  S
N1696      C1703   1.362       .  A
N1697      N1698   1.312       .  A
N1697     Mn1723   2.175       .  S
N1698      C1703   1.343       .  A
N1699      N1700   1.312       .  A
N1699     Mn1701   2.182       .  S
N1700      C1702   1.345       .  A
Mn1701    Cl1725   2.543       .  S
C1702      C1774   1.477       .  S
C1703      C1827   1.475       .  S
N1704      N1705   1.312       .  A
N1704      N1710   1.316       .  A
N1704     Mn1712   2.173       .  S
N1705      C1713   1.344       .  A
N1706      N1708   1.316       .  A
N1706      N1707   1.317       .  A
N1706     Mn1724   2.199       .  S
N1707      C1714   1.348       .  A
N1708      N1709   1.325       .  A
N1708     Mn1712   2.207       .  S
N1709      C1714   1.356       .  A
N1710      N1711   1.326       .  A
N1710     Mn1724   2.226       .  S
N1711      C1713   1.361       .  A
C1713      C1817   1.473       .  S
C1714      C1784   1.470       .  S
N1715      N1716   1.317       .  A
N1715      N1721   1.315       .  A
N1716      C1726   1.349       .  A
N1717      N1718   1.325       .  A
N1717      N1719   1.320       .  A
N1717     Mn1724   2.222       .  S
N1718      C1727   1.352       .  A
N1721      N1722   1.323       .  A
N1721     Mn1724   2.205       .  S
N1722      C1726   1.355       .  A
Mn1723    Cl1725   2.542       .  S
C1726      C1877   1.473       .  S
C1727      C1896   1.452       .  S
N1728      N1729   1.317       .  A
N1728      N2370   1.316       .  A
N1728     Mn1757   2.191       .  S
N1729      C1736   1.349       .  A
N1730      N2368   1.321       .  A
N1730      N1731   1.312       .  A
N1730     Mn1746   2.187       .  S
N1731      C2373   1.344       .  A
N1732      N2366   1.321   1_545  A
N1732      N1733   1.323       .  A
N1732     Mn1757   2.196       .  S
N1733      C1737   1.350       .  A
N1734      N2364   1.316       .  A
N1734      N1735   1.324       .  A
N1734     Mn1746   2.209       .  S
N1735      C2372   1.353       .  A
C1736      N2371   1.353       .  A
C1736      C1777   1.465       .  S
C1737      N2367   1.344   1_545  A
C1737      C1867   1.468       .  S
N1738      N1744   1.314       .  A
N1738      N1739   1.319       .  A
N1738     Mn1768   2.190       .  S
N1739      C1747   1.350       .  A
N1740      N1741   1.320       .  A
N1740      N1742   1.317       .  A
N1740     Mn1746   2.202       .  S
N1741      C1748   1.349       .  A
N1742      N1743   1.324       .  A
N1742     Mn1768   2.215       .  S
N1743      C1748   1.355       .  A
N1744      N1745   1.321       .  A
N1744     Mn1746   2.195       .  S
N1745      C1747   1.353       .  A
Mn1746    Cl1770   2.515       .  S
C1747      C1797   1.467       .  S
C1748      C1905   1.441       .  S
N1749      N1750   1.325       .  A
N1749      N1755   1.316       .  A
N1749     Mn1757   2.223       .  S
N1750      C1758   1.356       .  A
N1751      N1753   1.313       .  A
N1751      N1752   1.322       .  A
N1751     Mn1769   2.201       .  S
N1752      C1759   1.355       .  A
N1753      N1754   1.318       .  A
N1753     Mn1757   2.182       .  S
N1754      C1759   1.350       .  A
N1755      N1756   1.320       .  A
N1755     Mn1769   2.196       .  S
N1756      C1758   1.348       .  A
Mn1757    Cl2406   2.550   1_545  S
C1758      C1894   1.443       .  S
C1759      C1804   1.474       .  S
N1760      N1761   1.326       .  A
N1760      N1766   1.321       .  A
N1760     Mn1768   2.203       .  S
N1761      C1771   1.352       .  A
N1762      N1763   1.325       .  A
N1762      N1764   1.318       .  A
N1762     Mn2405   2.222       .  S
N1763      C1772   1.354       .  A
N1764      N1765   1.316       .  A
N1764     Mn1768   2.182       .  S
N1765      C1772   1.347       .  A
N1766      N1767   1.311       .  A
N1766     Mn2405   2.182       .  S
N1767      C1771   1.341       .  A
Mn1768    Cl1770   2.556       .  S
Mn1769     N2398   2.222   1_545  S
Mn1769     N2402   2.182       .  S
Mn1769    Cl2406   2.512   1_545  S
Cl1770    Mn2393   2.550       .  S
Cl1770    Mn2405   2.512       .  S
C1771      C1857   1.476       .  S
C1772      C1787   1.466       .  S
C1773      C1774   1.404       .  A
C1773      C1778   1.404       .  A
C1773      H1779   1.083       .  S
C1774      C1775   1.408       .  A
C1775      C1776   1.393       .  A
C1775      H1780   1.084       .  S
C1776      C1777   1.396       .  A
C1776      H1781   1.084       .  S
C1777      C1778   1.406       .  A
C1778      H1782   1.083       .  S
C1783      C1784   1.402       .  A
C1783      C1788   1.398       .  A
C1783      H1789   1.084       .  S
C1784      C1785   1.405       .  A
C1785      C1786   1.399       .  A
C1785      H1790   1.083       .  S
C1786      C1787   1.399       .  A
C1786      H1791   1.083       .  S
C1787      C1788   1.405       .  A
C1788      H1792   1.084       .  S
C1793      C1794   1.401       .  A
C1793      C1798   1.397       .  A
C1793      H1799   1.083       .  S
C1794      C1795   1.403       .  A
C1795      C1796   1.398       .  A
C1795      H1800   1.084       .  S
C1796      C1797   1.403       .  A
C1796      H1801   1.083       .  S
C1797      C1798   1.403       .  A
C1798      H1802   1.083       .  S
C1803      C1804   1.402       .  A
C1803      C1808   1.396       .  A
C1803      H1809   1.083       .  S
C1804      C1805   1.407       .  A
C1805      C1806   1.398       .  A
C1805      H1810   1.083       .  S
C1806      C1807   1.399       .  A
C1806      H1811   1.083       .  S
C1807      C1808   1.404       .  A
C1808      H1812   1.084       .  S
C1813      C1814   1.398       .  A
C1813      C1818   1.397       .  A
C1813      H1819   1.083       .  S
C1814      C1815   1.409       .  A
C1815      C1816   1.396       .  A
C1815      H1820   1.083       .  S
C1816      C1817   1.398       .  A
C1816      H1821   1.083       .  S
C1817      C1818   1.410       .  A
C1818      H1822   1.083       .  S
C1823      C1824   1.397       .  A
C1823      C1828   1.396       .  A
C1823      H1829   1.083       .  S
C1824      C1825   1.410       .  A
C1825      C1826   1.397       .  A
C1825      H1830   1.083       .  S
C1826      C1827   1.398       .  A
C1826      H1831   1.083       .  S
C1827      C1828   1.410       .  A
C1828      H1832   1.082       .  S
C1833      C1834   1.405   1_554  A
C1833      C1838   1.403       .  A
C1833      H1839   1.083       .  S
C1834      C1835   1.397       .  A
C1835      C1836   1.393       .  A
C1835      H1840   1.084       .  S
C1836      C1837   1.407       .  A
C1836      H1841   1.084       .  S
C1837      C1838   1.404   1_556  A
C1843      C1848   1.402       .  A
C1843      H1849   1.084       .  S
C1844      C1845   1.398       .  A
C1845      C1846   1.395       .  A
C1845      H1850   1.083       .  S
C1846      H1851   1.083       .  S
C1847      C1848   1.404   1_554  A
C1848      H1852   1.083       .  S
C1853      C1854   1.394       .  A
C1853      C1858   1.385       .  A
C1853      H2495   1.084       .  S
C1854      C1855   1.409       .  A
C1855      C1856   1.404       .  A
C1855      H1860   1.083       .  S
C1856      C1857   1.403       .  A
C1856      H1861   1.083       .  S
C1857      C1858   1.409       .  A
C1858      H2498   1.083       .  S
H1859      C2489   1.084   1_545  S
H1862      C2494   1.083   1_545  S
C1863      C1864   1.410       .  A
C1863      C1868   1.401       .  A
C1863      H1869   1.084       .  S
C1864      C1865   1.392       .  A
C1865      C1866   1.387       .  A
C1865      H1870   1.083   1_545  S
C1866      C1867   1.409       .  A
C1866      H1871   1.083   1_545  S
C1867      C1868   1.399       .  A
C1868      H1872   1.083       .  S
C1873      C1878   1.401       .  A
C1873      H1879   1.083       .  S
C1874      C1875   1.399   1_455  A
C1875      C1876   1.394       .  A
C1875      H1880   1.084       .  S
C1876      H1881   1.082       .  S
C1877      C1878   1.403       .  A
C1878      H1882   1.083       .  S
C1883      C1884   1.402       .  A
C1883      C1888   1.399       .  A
C1883      H1889   1.083       .  S
C1884      C1885   1.404       .  A
C1885      C1886   1.396       .  A
C1885      H1890   1.083       .  S
C1886      C1887   1.399       .  A
C1886      H1891   1.083       .  S
C1887      C1888   1.403       .  A
C1888      H1892   1.083       .  S
C1893      C1894   1.211       .  T
C1895      C1896   1.216       .  T
C1897      C1898   1.215       .  T
C1899      C1900   1.211       .  T
C1901      C1902   1.210       .  T
C1903      C1904   1.214       .  T
C1905      C1906   1.210       .  T
C1907      C1908   1.213       .  T
C1909      C2219   1.473       .  S
C1909      C2221   1.479       .  S
C1909      C2224   1.472       .  S
C1909      C2226   1.478       .  S
C1910      C2211   1.474       .  S
C1910      C2213   1.483       .  S
C1910      C2216   1.481       .  S
C1910      C2217   1.474       .  S
N1911      N1912   1.316       .  A
N1911      N1917   1.317       .  A
N1911     Mn2258   2.195       .  S
N1912      C1919   1.349       .  A
N1913      N1914   1.314       .  A
N1913     Mn1929   2.189       .  S
N1915      N1916   1.321       .  A
N1915     Mn1940   2.185       .  S
N1916      C1920   1.348       .  A
N1917      N1918   1.324       .  A
N1918      C1919   1.353       .  A
C1919      C2152   1.464       .  S
C1920      C2182   1.456       .  S
N1921      N1927   1.314       .  A
N1921      N1922   1.319   1_655  A
N1922      C1930   1.350   1_455  A
N1923      N1924   1.320       .  A
N1923      N1925   1.316       .  A
N1923     Mn2247   2.195       .  S
N1924      C1931   1.349       .  A
N1925      N1926   1.324       .  A
N1926      C1931   1.355       .  A
N1927      N1928   1.321       .  A
N1927     Mn1929   2.201       .  S
N1928      C1930   1.354       .  A
Mn1929     N2241   2.195   1_554  S
Mn1929    Cl2271   2.535       .  S
C1930      C2192   1.467   1_655  S
C1931      C2220   1.442       .  S
N1932      N1933   1.324       .  A
N1932     Mn1940   2.215   1_455  S
N1934      N1935   1.323       .  A
N1934     Mn1952   2.208       .  S
N1936      N1937   1.317       .  A
N1936     Mn2258   2.180       .  S
N1937      C1942   1.348       .  A
N1938      N1939   1.321       .  A
N1938     Mn2270   2.205   1_554  S
N1939      C1941   1.350       .  A
Mn1940     N2229   2.195       .  S
Mn1940     N2254   2.180   1_554  S
C1941      C2218   1.443       .  S
C1942      C2202   1.470       .  S
N1943      N1944   1.323       .  A
N1943      N1949   1.319       .  A
N1943     Mn1951   2.191       .  S
N1944      C1954   1.350       .  A
N1945      N1946   1.324   1_556  A
N1945      N1947   1.317       .  A
N1946      C1955   1.354       .  A
N1947      N1948   1.316   1_556  A
N1947     Mn2269   2.188       .  S
N1948      C1955   1.348       .  A
Mn1951     N2265   2.188       .  S
Mn1952     N2256   2.205       .  S
Cl1953    Mn2247   2.535       .  S
C1954      C2172   1.461       .  S
C1955      C2162   1.464       .  S
N1956      N1957   1.322       .  A
N1956      N1962   1.318       .  A
N1956     Mn1985   2.206       .  S
N1957      C1964   1.351       .  A
N1958      N1960   1.315       .  A
N1958      N1959   1.323       .  A
N1958     Mn1974   2.206       .  S
N1959      C1965   1.354       .  A
N1960      N1961   1.317       .  A
N1960     Mn1985   2.187       .  S
N1961      C1965   1.348       .  A
N1962      N1963   1.324       .  A
N1962     Mn1974   2.215       .  S
N1963      C1964   1.352       .  A
C1964      C2222   1.448       .  S
C1965      C2125   1.466       .  S
N1966      N2290   1.316   1_554  A
N1966      N1967   1.327       .  A
N1966     Mn1996   2.217       .  S
N1967      C1975   1.360       .  A
N1968      N1969   1.327       .  A
N1968      N1970   1.316       .  A
N1968     Mn2292   2.224   1_554  S
N1969      C1976   1.361       .  A
N1970      N1971   1.312       .  A
N1970     Mn1996   2.174       .  S
N1971      C1976   1.343       .  A
N1972      N2284   1.316       .  A
N1972      N1973   1.313       .  A
N1972     Mn1974   2.188       .  S
N1973      C2293   1.346       .  A
Mn1974     N2286   2.224       .  S
Mn1974    Cl1998   2.546       .  S
C1975      N2291   1.346   1_554  A
C1975      C2473   1.477   1_554  S
C1976      C2142   1.472       .  S
N1977      N1978   1.312       .  A
N1977      N1983   1.315       .  A
N1977     Mn1985   2.175       .  S
N1978      C1986   1.344       .  A
N1979      N1981   1.315       .  A
N1979      N2298   1.315       .  A
N1979     Mn2315   2.197       .  S
N1980      N2297   1.315       .  A
N1980      C2305   1.349   1_554  A
N1981      N1982   1.325       .  A
N1981     Mn1985   2.204       .  S
N1982      C1987   1.357       .  A
N1983      N1984   1.326       .  A
N1983     Mn2315   2.220       .  S
N1984      C1986   1.361       .  A
Mn1985    Cl1998   2.541       .  S
C1986      C2132   1.472       .  S
C1987      N2298   1.349       .  A
C1987      C2165   1.474       .  S
N1988      N1989   1.319       .  A
N1988      N1994   1.315       .  A
N1988     Mn1996   2.195       .  S
N1989      C1999   1.349       .  A
N1990      N1991   1.325       .  A
N1990      N1992   1.319       .  A
N1990     Mn1997   2.221       .  S
N1991      C2000   1.352       .  A
N1992      N1993   1.323       .  A
N1992     Mn1996   2.204       .  S
N1993      C2000   1.351       .  A
N1994      N1995   1.321       .  A
N1994     Mn1997   2.201       .  S
N1995      C1999   1.353       .  A
Mn1996    Cl2316   2.547       .  S
Mn1997     N2297   2.197       .  S
Mn1997     N2301   2.220   1_554  S
Mn1997    Cl2316   2.541       .  S
Cl1998    Mn2314   2.547       .  S
Cl1998    Mn2315   2.541       .  S
C1999      C2112   1.464       .  S
C2000      C2215   1.449       .  S
N2001      N2002   1.322       .  A
N2001      N2007   1.319       .  A
N2002      C2009   1.349       .  A
N2003      N2005   1.314       .  A
N2003      N2004   1.322       .  A
N2003     Mn2019   2.200       .  S
N2004      C2010   1.352       .  A
N2005      N2006   1.319       .  A
N2006      C2010   1.349       .  A
N2007      N2008   1.325       .  A
N2007     Mn2019   2.218       .  S
N2008      C2009   1.352       .  A
C2009      C2225   1.447       .  S
C2010      C2205   1.464       .  S
N2011      N2017   1.316       .  A
N2011      N2012   1.328       .  A
N2011     Mn2041   2.222       .  S
N2012      C2020   1.361       .  A
N2013      N2014   1.327       .  A
N2013      N2015   1.315       .  A
N2013     Mn2019   2.223       .  S
N2014      C2021   1.362       .  A
N2015      N2016   1.312       .  A
N2015     Mn2041   2.175       .  S
N2016      C2021   1.343       .  A
N2017      N2018   1.312       .  A
N2017     Mn2019   2.182       .  S
N2018      C2020   1.345       .  A
Mn2019    Cl2043   2.543       .  S
C2020      C2092   1.477       .  S
C2021      C2145   1.475       .  S
N2022      N2023   1.312       .  A
N2022      N2028   1.316       .  A
N2022     Mn2030   2.173       .  S
N2023      C2031   1.344       .  A
N2024      N2026   1.316       .  A
N2024      N2025   1.317       .  A
N2024     Mn2042   2.199       .  S
N2025      C2032   1.348       .  A
N2026      N2027   1.325       .  A
N2026     Mn2030   2.207       .  S
N2027      C2032   1.356       .  A
N2028      N2029   1.326       .  A
N2028     Mn2042   2.226       .  S
N2029      C2031   1.361       .  A
C2031      C2135   1.473       .  S
C2032      C2102   1.470       .  S
N2033      N2034   1.317       .  A
N2033      N2039   1.315       .  A
N2034      C2044   1.349       .  A
N2035      N2036   1.325       .  A
N2035      N2037   1.320       .  A
N2035     Mn2042   2.222       .  S
N2036      C2045   1.352       .  A
N2039      N2040   1.323       .  A
N2039     Mn2042   2.205       .  S
N2040      C2044   1.355       .  A
Mn2041    Cl2043   2.542       .  S
C2044      C2195   1.473       .  S
C2045      C2214   1.452       .  S
N2046      N2047   1.317       .  A
N2046     Mn2075   2.191       .  S
N2047      C2054   1.349       .  A
N2048      N2049   1.312       .  A
N2048     Mn2064   2.187       .  S
N2050      N2051   1.323       .  A
N2050     Mn2075   2.196       .  S
N2051      C2055   1.350       .  A
N2052      N2053   1.324       .  A
N2052     Mn2064   2.209   1_545  S
C2054      C2095   1.465       .  S
C2055      C2185   1.468       .  S
N2056      N2062   1.314       .  A
N2056      N2057   1.319       .  A
N2056     Mn2086   2.190       .  S
N2057      C2065   1.350       .  A
N2058      N2059   1.320       .  A
N2058      N2060   1.317       .  A
N2058     Mn2064   2.202       .  S
N2059      C2066   1.349       .  A
N2060      N2061   1.324       .  A
N2060     Mn2086   2.215       .  S
N2061      C2066   1.355       .  A
N2062      N2063   1.321       .  A
N2062     Mn2064   2.195       .  S
N2063      C2065   1.353       .  A
Mn2064    Cl2088   2.515       .  S
C2065      C2115   1.467       .  S
C2066      C2223   1.441       .  S
N2067      N2068   1.325       .  A
N2067      N2073   1.316       .  A
N2067     Mn2075   2.223       .  S
N2068      C2076   1.356       .  A
N2069      N2071   1.313       .  A
N2069      N2070   1.322       .  A
N2069     Mn2087   2.201       .  S
N2070      C2077   1.355       .  A
N2071      N2072   1.318       .  A
N2071     Mn2075   2.182       .  S
N2072      C2077   1.350       .  A
N2073      N2074   1.320       .  A
N2073     Mn2087   2.196       .  S
N2074      C2076   1.348       .  A
C2076      C2212   1.443       .  S
C2077      C2122   1.474       .  S
N2078      N2079   1.326       .  A
N2078      N2084   1.321   1_565  A
N2078     Mn2086   2.203       .  S
N2079      C2089   1.352       .  A
N2080      N2081   1.325       .  A
N2080      N2082   1.318       .  A
N2081      C2090   1.354       .  A
N2082      N2083   1.316       .  A
N2082     Mn2086   2.182       .  S
N2083      C2090   1.347       .  A
N2084      N2085   1.311       .  A
N2085      C2089   1.341   1_545  A
Mn2086    Cl2088   2.556       .  S
C2089      C2175   1.476       .  S
C2090      C2105   1.466       .  S
C2091      C2092   1.404       .  A
C2091      C2096   1.404       .  A
C2091      H2097   1.083       .  S
C2092      C2093   1.408       .  A
C2093      C2094   1.393       .  A
C2093      H2098   1.084       .  S
C2094      C2095   1.396       .  A
C2094      H2099   1.084       .  S
C2095      C2096   1.406       .  A
C2096      H2100   1.083       .  S
C2101      C2102   1.402       .  A
C2101      C2106   1.398       .  A
C2101      H2107   1.084       .  S
C2102      C2103   1.405       .  A
C2103      C2104   1.399       .  A
C2103      H2108   1.083       .  S
C2104      C2105   1.399       .  A
C2104      H2109   1.083       .  S
C2105      C2106   1.405       .  A
C2106      H2110   1.084       .  S
C2111      C2112   1.401       .  A
C2111      C2116   1.397       .  A
C2111      H2117   1.083       .  S
C2112      C2113   1.403       .  A
C2113      C2114   1.398       .  A
C2113      H2118   1.084       .  S
C2114      C2115   1.403       .  A
C2114      H2119   1.083       .  S
C2115      C2116   1.403       .  A
C2116      H2120   1.083       .  S
C2121      C2122   1.402       .  A
C2121      C2126   1.396       .  A
C2121      H2127   1.083       .  S
C2122      C2123   1.407       .  A
C2123      C2124   1.398       .  A
C2123      H2128   1.083       .  S
C2124      C2125   1.399       .  A
C2124      H2129   1.083       .  S
C2125      C2126   1.404       .  A
C2126      H2130   1.084       .  S
C2131      C2132   1.398       .  A
C2131      C2136   1.397       .  A
C2131      H2137   1.083       .  S
C2132      C2133   1.409       .  A
C2133      C2134   1.396       .  A
C2133      H2138   1.083       .  S
C2134      C2135   1.398       .  A
C2134      H2139   1.083       .  S
C2135      C2136   1.410       .  A
C2136      H2140   1.083       .  S
C2141      C2142   1.397       .  A
C2141      C2146   1.396       .  A
C2141      H2147   1.083       .  S
C2142      C2143   1.410       .  A
C2143      C2144   1.397       .  A
C2143      H2148   1.083       .  S
C2144      C2145   1.398       .  A
C2144      H2149   1.083       .  S
C2145      C2146   1.410       .  A
C2146      H2150   1.082       .  S
C2151      C2152   1.405       .  A
C2151      C2156   1.403       .  A
C2151      H2157   1.083       .  S
C2152      C2153   1.397       .  A
C2153      C2154   1.393       .  A
C2153      H2158   1.084       .  S
C2154      C2155   1.407       .  A
C2154      H2159   1.084       .  S
C2155      C2293   1.477       .  S
C2155      C2156   1.404       .  A
C2156      H2478   1.083       .  S
H2160      C2474   1.083       .  S
C2161      C2480   1.405       .  A
C2161      C2166   1.402       .  A
C2161      H2167   1.084       .  S
C2162      C2479   1.405   1_554  A
C2162      C2163   1.398       .  A
C2163      C2164   1.395       .  A
C2163      H2168   1.083       .  S
C2164      C2483   1.405       .  A
C2164      H2169   1.083       .  S
C2165      C2482   1.405       .  A
C2165      C2166   1.404       .  A
C2166      H2170   1.083       .  S
C2171      C2172   1.394       .  A
C2171      C2176   1.385       .  A
C2172      C2173   1.409       .  A
C2173      C2174   1.404       .  A
C2173      H2178   1.083       .  S
C2174      C2175   1.403       .  A
C2174      H2179   1.083       .  S
C2175      C2176   1.409       .  A
C2181      C2182   1.410       .  A
C2181      C2186   1.401       .  A
C2181      H2187   1.084       .  S
C2182      C2183   1.392       .  A
C2183      C2184   1.387       .  A
C2183      H2188   1.083       .  S
C2184      C2185   1.409       .  A
C2184      H2189   1.083       .  S
C2185      C2186   1.399       .  A
C2186      H2190   1.083       .  S
C2191      C2196   1.401       .  A
C2191      H2197   1.083       .  S
C2192      C2193   1.399   1_455  A
C2193      C2194   1.394       .  A
C2193      H2198   1.084       .  S
C2194      H2199   1.082       .  S
C2195      C2196   1.403       .  A
C2196      H2200   1.083       .  S
C2201      C2202   1.402       .  A
C2201      C2206   1.399       .  A
C2201      H2207   1.083       .  S
C2202      C2203   1.404       .  A
C2203      C2204   1.396       .  A
C2203      H2208   1.083       .  S
C2204      C2205   1.399       .  A
C2204      H2209   1.083       .  S
C2205      C2206   1.403       .  A
C2206      H2210   1.083       .  S
C2211      C2212   1.211       .  T
C2213      C2214   1.216       .  T
C2215      C2216   1.215       .  T
C2217      C2218   1.211       .  T
C2219      C2220   1.210       .  T
C2221      C2222   1.214       .  T
C2223      C2224   1.210       .  T
C2225      C2226   1.213       .  T
C2227      C2537   1.473       .  S
C2227      C2539   1.479       .  S
C2227      C2542   1.472       .  S
C2227      C2544   1.478       .  S
C2228      C2529   1.474       .  S
C2228      C2531   1.483       .  S
C2228      C2534   1.481       .  S
C2228      C2535   1.474       .  S
N2229      N2230   1.316       .  A
N2229      N2235   1.317       .  A
N2230      C2237   1.349   1_554  A
N2231      N2232   1.314       .  A
N2231     Mn2247   2.189       .  S
N2233      N2234   1.321       .  A
N2233     Mn2258   2.185       .  S
N2234      C2238   1.348       .  A
N2235      N2236   1.324       .  A
N2236      C2237   1.353   1_554  A
C2237      C2470   1.464       .  S
C2238      C2500   1.456       .  S
N2239      N2245   1.314       .  A
N2239      N2240   1.319   1_655  A
N2240      C2248   1.350   1_455  A
N2241      N2242   1.320       .  A
N2241      N2243   1.316       .  A
N2242      C2249   1.349       .  A
N2243      N2244   1.324       .  A
N2244      C2249   1.355       .  A
N2245      N2246   1.321       .  A
N2245     Mn2247   2.201       .  S
N2246      C2248   1.354       .  A
C2248      C2510   1.467   1_655  S
C2249      C2538   1.442       .  S
N2250      N2251   1.324       .  A
N2250     Mn2258   2.215   1_455  S
N2252      N2253   1.323       .  A
N2252     Mn2270   2.208       .  S
N2254      N2255   1.317       .  A
N2255      C2260   1.348       .  A
N2256      N2257   1.321       .  A
N2257      C2259   1.350       .  A
C2259      C2536   1.443       .  S
C2260      C2520   1.470       .  S
N2261      N2262   1.323       .  A
N2261      N2267   1.319       .  A
N2261     Mn2269   2.191       .  S
N2262      C2272   1.350       .  A
N2263      N2264   1.324       .  A
N2263      N2265   1.317       .  A
N2264      C2273   1.354       .  A
N2265      N2266   1.316       .  A
N2266      C2273   1.348       .  A
C2272      C2490   1.461       .  S
C2273      C2480   1.464       .  S
N2274      N2275   1.322       .  A
N2274      N2280   1.318       .  A
N2274     Mn2303   2.206       .  S
N2275      C2282   1.351       .  A
N2276      N2278   1.315       .  A
N2276      N2277   1.323       .  A
N2276     Mn2292   2.206       .  S
N2277      C2283   1.354       .  A
N2278      N2279   1.317       .  A
N2278     Mn2303   2.187       .  S
N2279      C2283   1.348       .  A
N2280      N2281   1.324       .  A
N2280     Mn2292   2.215       .  S
N2281      C2282   1.352       .  A
C2282      C2540   1.448       .  S
C2283      C2443   1.466       .  S
N2284      N2285   1.327       .  A
N2284     Mn2314   2.217       .  S
N2285      C2293   1.360       .  A
N2286      N2287   1.327       .  A
N2286      N2288   1.316       .  A
N2287      C2294   1.361       .  A
N2288      N2289   1.312       .  A
N2288     Mn2314   2.174       .  S
N2289      C2294   1.343       .  A
N2290      N2291   1.313       .  A
N2290     Mn2292   2.188       .  S
Mn2292    Cl2316   2.546   1_556  S
C2294      C2460   1.472       .  S
N2295      N2296   1.312       .  A
N2295      N2301   1.315       .  A
N2295     Mn2303   2.175       .  S
N2296      C2304   1.344       .  A
N2297      N2299   1.315   1_554  A
N2299      N2300   1.325       .  A
N2299     Mn2303   2.204       .  S
N2300      C2305   1.357       .  A
N2301      N2302   1.326       .  A
N2302      C2304   1.361       .  A
Mn2303    Cl2316   2.541   1_556  S
C2304      C2450   1.472       .  S
C2305      C2483   1.474   1_556  S
N2306      N2307   1.319       .  A
N2306      N2312   1.315       .  A
N2306     Mn2314   2.195       .  S
N2307      C2317   1.349       .  A
N2308      N2309   1.325       .  A
N2308      N2310   1.319       .  A
N2308     Mn2315   2.221       .  S
N2309      C2318   1.352       .  A
N2310      N2311   1.323       .  A
N2310     Mn2314   2.204       .  S
N2311      C2318   1.351       .  A
N2312      N2313   1.321       .  A
N2312     Mn2315   2.201       .  S
N2313      C2317   1.353       .  A
C2317      C2430   1.464       .  S
C2318      C2533   1.449       .  S
N2319      N2320   1.322       .  A
N2319      N2325   1.319       .  A
N2320      C2327   1.349       .  A
N2321      N2323   1.314       .  A
N2321      N2322   1.322       .  A
N2321     Mn2337   2.200       .  S
N2322      C2328   1.352       .  A
N2323      N2324   1.319       .  A
N2324      C2328   1.349       .  A
N2325      N2326   1.325       .  A
N2325     Mn2337   2.218       .  S
N2326      C2327   1.352       .  A
C2327      C2543   1.447       .  S
C2328      C2523   1.464       .  S
N2329      N2335   1.316       .  A
N2329      N2330   1.328       .  A
N2329     Mn2359   2.222       .  S
N2330      C2338   1.361       .  A
N2331      N2332   1.327       .  A
N2331      N2333   1.315       .  A
N2331     Mn2337   2.223       .  S
N2332      C2339   1.362       .  A
N2333      N2334   1.312       .  A
N2333     Mn2359   2.175       .  S
N2334      C2339   1.343       .  A
N2335      N2336   1.312       .  A
N2335     Mn2337   2.182       .  S
N2336      C2338   1.345       .  A
Mn2337    Cl2361   2.543       .  S
C2338      C2410   1.477       .  S
C2339      C2463   1.475       .  S
N2340      N2341   1.312       .  A
N2340      N2346   1.316       .  A
N2340     Mn2348   2.173       .  S
N2341      C2349   1.344       .  A
N2342      N2344   1.316       .  A
N2342      N2343   1.317       .  A
N2342     Mn2360   2.199       .  S
N2343      C2350   1.348       .  A
N2344      N2345   1.325       .  A
N2344     Mn2348   2.207       .  S
N2345      C2350   1.356       .  A
N2346      N2347   1.326       .  A
N2346     Mn2360   2.226       .  S
N2347      C2349   1.361       .  A
C2349      C2453   1.473       .  S
C2350      C2420   1.470       .  S
N2351      N2352   1.317       .  A
N2351      N2357   1.315       .  A
N2352      C2362   1.349       .  A
N2353      N2354   1.325       .  A
N2353      N2355   1.320       .  A
N2353     Mn2360   2.222       .  S
N2354      C2363   1.352       .  A
N2357      N2358   1.323       .  A
N2357     Mn2360   2.205       .  S
N2358      C2362   1.355       .  A
Mn2359    Cl2361   2.542       .  S
C2362      C2513   1.473       .  S
C2363      C2532   1.452       .  S
N2364      N2365   1.317       .  A
N2364     Mn2393   2.191       .  S
N2365      C2372   1.349       .  A
N2366      N2367   1.312       .  A
N2366     Mn2382   2.187       .  S
N2368      N2369   1.323       .  A
N2368     Mn2393   2.196       .  S
N2369      C2373   1.350       .  A
N2370      N2371   1.324       .  A
N2370     Mn2382   2.209   1_545  S
C2372      C2413   1.465       .  S
C2373      C2503   1.468       .  S
N2374      N2380   1.314       .  A
N2374      N2375   1.319       .  A
N2374     Mn2404   2.190       .  S
N2375      C2383   1.350       .  A
N2376      N2377   1.320       .  A
N2376      N2378   1.317       .  A
N2376     Mn2382   2.202       .  S
N2377      C2384   1.349       .  A
N2378      N2379   1.324       .  A
N2378     Mn2404   2.215       .  S
N2379      C2384   1.355       .  A
N2380      N2381   1.321       .  A
N2380     Mn2382   2.195       .  S
N2381      C2383   1.353       .  A
Mn2382    Cl2406   2.515       .  S
C2383      C2433   1.467       .  S
C2384      C2541   1.441       .  S
N2385      N2386   1.325       .  A
N2385      N2391   1.316       .  A
N2385     Mn2393   2.223       .  S
N2386      C2394   1.356       .  A
N2387      N2389   1.313       .  A
N2387      N2388   1.322       .  A
N2387     Mn2405   2.201       .  S
N2388      C2395   1.355       .  A
N2389      N2390   1.318       .  A
N2389     Mn2393   2.182       .  S
N2390      C2395   1.350       .  A
N2391      N2392   1.320       .  A
N2391     Mn2405   2.196       .  S
N2392      C2394   1.348       .  A
C2394      C2530   1.443       .  S
C2395      C2440   1.474       .  S
N2396      N2397   1.326       .  A
N2396      N2402   1.321   1_565  A
N2396     Mn2404   2.203       .  S
N2397      C2407   1.352       .  A
N2398      N2399   1.325       .  A
N2398      N2400   1.318       .  A
N2399      C2408   1.354       .  A
N2400      N2401   1.316       .  A
N2400     Mn2404   2.182       .  S
N2401      C2408   1.347       .  A
N2402      N2403   1.311       .  A
N2403      C2407   1.341   1_545  A
Mn2404    Cl2406   2.556       .  S
C2407      C2493   1.476       .  S
C2408      C2423   1.466       .  S
C2409      C2410   1.404       .  A
C2409      C2414   1.404       .  A
C2409      H2415   1.083       .  S
C2410      C2411   1.408       .  A
C2411      C2412   1.393       .  A
C2411      H2416   1.084       .  S
C2412      C2413   1.396       .  A
C2412      H2417   1.084       .  S
C2413      C2414   1.406       .  A
C2414      H2418   1.083       .  S
C2419      C2420   1.402       .  A
C2419      C2424   1.398       .  A
C2419      H2425   1.084       .  S
C2420      C2421   1.405       .  A
C2421      C2422   1.399       .  A
C2421      H2426   1.083       .  S
C2422      C2423   1.399       .  A
C2422      H2427   1.083       .  S
C2423      C2424   1.405       .  A
C2424      H2428   1.084       .  S
C2429      C2430   1.401       .  A
C2429      C2434   1.397       .  A
C2429      H2435   1.083       .  S
C2430      C2431   1.403       .  A
C2431      C2432   1.398       .  A
C2431      H2436   1.084       .  S
C2432      C2433   1.403       .  A
C2432      H2437   1.083       .  S
C2433      C2434   1.403       .  A
C2434      H2438   1.083       .  S
C2439      C2440   1.402       .  A
C2439      C2444   1.396       .  A
C2439      H2445   1.083       .  S
C2440      C2441   1.407       .  A
C2441      C2442   1.398       .  A
C2441      H2446   1.083       .  S
C2442      C2443   1.399       .  A
C2442      H2447   1.083       .  S
C2443      C2444   1.404       .  A
C2444      H2448   1.084       .  S
C2449      C2450   1.398       .  A
C2449      C2454   1.397       .  A
C2449      H2455   1.083       .  S
C2450      C2451   1.409       .  A
C2451      C2452   1.396       .  A
C2451      H2456   1.083       .  S
C2452      C2453   1.398       .  A
C2452      H2457   1.083       .  S
C2453      C2454   1.410       .  A
C2454      H2458   1.083       .  S
C2459      C2460   1.397       .  A
C2459      C2464   1.396       .  A
C2459      H2465   1.083       .  S
C2460      C2461   1.410       .  A
C2461      C2462   1.397       .  A
C2461      H2466   1.083       .  S
C2462      C2463   1.398       .  A
C2462      H2467   1.083       .  S
C2463      C2464   1.410       .  A
C2464      H2468   1.082       .  S
C2469      C2470   1.405   1_554  A
C2469      C2474   1.403       .  A
C2469      H2475   1.083       .  S
C2470      C2471   1.397       .  A
C2471      C2472   1.393       .  A
C2471      H2476   1.084       .  S
C2472      C2473   1.407       .  A
C2472      H2477   1.084       .  S
C2473      C2474   1.404   1_556  A
C2479      C2484   1.402       .  A
C2479      H2485   1.084       .  S
C2480      C2481   1.398       .  A
C2481      C2482   1.395       .  A
C2481      H2486   1.083       .  S
C2482      H2487   1.083       .  S
C2483      C2484   1.404   1_554  A
C2484      H2488   1.083       .  S
C2489      C2490   1.394       .  A
C2489      C2494   1.385       .  A
C2490      C2491   1.409       .  A
C2491      C2492   1.404       .  A
C2491      H2496   1.083       .  S
C2492      C2493   1.403       .  A
C2492      H2497   1.083       .  S
C2493      C2494   1.409       .  A
C2499      C2500   1.410       .  A
C2499      C2504   1.401       .  A
C2499      H2505   1.084       .  S
C2500      C2501   1.392       .  A
C2501      C2502   1.387       .  A
C2501      H2506   1.083       .  S
C2502      C2503   1.409       .  A
C2502      H2507   1.083       .  S
C2503      C2504   1.399       .  A
C2504      H2508   1.083       .  S
C2509      C2514   1.401       .  A
C2509      H2515   1.083       .  S
C2510      C2511   1.399   1_455  A
C2511      C2512   1.394       .  A
C2511      H2516   1.084       .  S
C2512      H2517   1.082       .  S
C2513      C2514   1.403       .  A
C2514      H2518   1.083       .  S
C2519      C2520   1.402       .  A
C2519      C2524   1.399       .  A
C2519      H2525   1.083       .  S
C2520      C2521   1.404       .  A
C2521      C2522   1.396       .  A
C2521      H2526   1.083       .  S
C2522      C2523   1.399       .  A
C2522      H2527   1.083       .  S
C2523      C2524   1.403       .  A
C2524      H2528   1.083       .  S
C2529      C2530   1.211       .  T
C2531      C2532   1.216       .  T
C2533      C2534   1.215       .  T
C2535      C2536   1.211       .  T
C2537      C2538   1.210       .  T
C2539      C2540   1.214       .  T
C2541      C2542   1.210       .  T
C2543      C2544   1.213       .  T
