geometry optimzed in LAMMPS
_audit_creation_date              2020-12-01 
_audit_creation_method            'lammps2cif' 
_symmetry_space_group_name_H-M    'P1' 
_symmetry_Int_Tables_number       1 
_symmetry_cell_setting            triclinic 
loop_ 
_symmetry_equiv_pos_as_xyz 
  x,y,z 
_cell_length_a                    35.71685706 
_cell_length_b                    34.526491495653524 
_cell_length_c                    36.7938221479477 
_cell_angle_alpha                 92.4196475735921 
_cell_angle_beta                  89.37613725023276 
_cell_angle_gamma                 90.2223880914978 
loop_ 
_atom_site_label 
_atom_site_type_symbol 
_atom_site_fract_x 
_atom_site_fract_y 
_atom_site_fract_z 
_atom_site_charge 
C1          C  0.19119112  0.20609032  0.20988470     0.87200
C2          C  0.22345469  0.22855779  0.19207744    -0.53000
C3          C  0.24631420  0.24797171  0.21599881     0.10200
C4          C  0.23646434  0.24166898  0.25597567     0.21100
C5          C  0.21187779  0.17893070  0.23573798    -0.53700
C6          C  0.23700394  0.19682317  0.25905974     0.10300
C7          C  0.17170371  0.23503378  0.23633864    -0.53200
C8          C  0.19488898  0.25356738  0.26055714     0.10800
H9          H  0.22707440  0.23027663  0.16285095     0.15400
H10         H  0.25528430  0.25859028  0.27438818     0.01100
H11         H  0.20719228  0.14842538  0.23599655     0.15700
H12         H  0.14194554  0.24119812  0.23522523     0.15500
C13         C  0.10533445  0.47369608  0.43320315     0.30800
C14         C  0.10126371  0.53883509  0.47871289     0.30800
C15         C  0.13188407  0.50689381  0.42468660    -0.05400
C16         C  0.06659894  0.49491157  0.43362775    -0.06200
C17         C  0.10976769  0.46721087  0.47386623    -0.06100
C18         C  0.13082272  0.53932513  0.44824564    -0.05400
C19         C  0.06457106  0.52846114  0.45776743    -0.06200
C20         C  0.10798644  0.49998476  0.49681025    -0.06100
C21         C  0.14326360  0.57010697  0.42849300    -0.31500
N22         N  0.15155525  0.55756810  0.39398631     0.15000
C23         C  0.14342589  0.51932325  0.39121142    -0.31500
H24         H  0.14079163  0.50276225  0.36576189     0.17000
C25         C  0.02733961  0.53216569  0.46821416    -0.30500
N26         N  0.00644843  0.50509354  0.44985585     0.13700
C27         C  0.02998808  0.48122802  0.43040150    -0.30400
C28         C  0.11336899  0.48798988  0.53168965    -0.30700
N29         N  0.11871072  0.44910438  0.53031195     0.14300
H30         H  0.11523021  0.50640100  0.55612211     0.16900
C31         C  0.11648750  0.43603354  0.49508954    -0.30700
H32         H  0.12101057  0.40632865  0.48552503     0.16900
H33         H  0.02130702  0.45369245  0.41818313     0.16900
H34         H  0.14187714  0.60034066  0.43746055     0.17000
H35         H  0.01684613  0.55081650  0.49021529     0.16900
C36         C  0.19398755  0.81410542  0.69327566     0.87200
C37         C  0.22339426  0.79005399  0.71319799    -0.53000
C38         C  0.24475898  0.76660142  0.69076525     0.10200
C39         C  0.23344639  0.76670278  0.65072814     0.21100
C40         C  0.21700814  0.83416760  0.66356349    -0.53700
C41         C  0.23729409  0.80935262  0.64102147     0.10300
C42         C  0.17071703  0.78228925  0.67315037    -0.53200
C43         C  0.19116274  0.75778915  0.65062068     0.10800
H44         H  0.22746500  0.79050662  0.74233938     0.15400
H45         H  0.25027776  0.74655146  0.63282453     0.01100
H46         H  0.21918358  0.86544475  0.66257140     0.15700
H47         H  0.14058650  0.77962363  0.67608991     0.15500
C48         C  0.44254736  0.10694676  0.42314118     0.30800
C49         C  0.50106645  0.10627706  0.47194524     0.30800
C50         C  0.43603551  0.12877908  0.46023651    -0.05400
C51         C  0.45469501  0.06672052  0.43524781    -0.06200
C52         C  0.48007012  0.12522829  0.41069577    -0.06100
C53         C  0.46519449  0.12708612  0.48489699    -0.05400
C54         C  0.48511159  0.06584508  0.45934878    -0.06200
C55         C  0.50976700  0.12306115  0.43485996    -0.06100
C56         C  0.45312364  0.14417725  0.51735890    -0.31500
N57         N  0.41772705  0.15686647  0.51308944     0.15000
C58         C  0.40731156  0.14879331  0.47822712    -0.31500
H59         H  0.38055876  0.15662755  0.46727417     0.17000
C60         C  0.49404033  0.02695306  0.46166299    -0.30500
N61         N  0.46885505  0.00541651  0.44228130     0.13700
C62         C  0.44474828  0.02899156  0.42587839    -0.30400
C63         C  0.54130667  0.13736479  0.41812450    -0.30700
N64         N  0.53154804  0.14924424  0.38495449     0.14300
H65         H  0.56927967  0.13890712  0.42912379     0.16900
C66         C  0.49418571  0.14347049  0.38065070    -0.30700
H67         H  0.47869346  0.15226636  0.35742720     0.16900
H68         H  0.42300145  0.01945016  0.40726854     0.16900
H69         H  0.46853108  0.14636340  0.54253941     0.17000
H70         H  0.51782238  0.01433988  0.47440620     0.16900
C71         C  0.76881016  0.25084505  0.16257129     0.87200
C72         C  0.79104262  0.27342777  0.19288918    -0.53000
C73         C  0.77009125  0.29809929  0.21492621     0.10200
C74         C  0.72828663  0.29900256  0.20373177     0.21100
C75         C  0.73668857  0.23156468  0.18348758    -0.53700
C76         C  0.71483805  0.25631083  0.20440821     0.10300
C77         C  0.75066247  0.28368967  0.14194152    -0.53200
C78         C  0.72883301  0.30843886  0.16282860     0.10800
H79         H  0.82098684  0.27181218  0.19661592     0.15400
H80         H  0.71120679  0.31932046  0.22102365     0.01100
H81         H  0.73194336  0.20043741  0.18212186     0.15700
H82         H  0.75304768  0.28586776  0.11265364     0.15500
C83         C  0.23376449  0.25664331  0.78342535     0.87200
C84         C  0.20693947  0.28035207  0.76072463    -0.53000
C85         C  0.22411376  0.30468008  0.73752710     0.10200
C86         C  0.26698453  0.30513520  0.74052453     0.21100
C87         C  0.26103021  0.23742873  0.75498876    -0.53700
C88         C  0.27829649  0.26268907  0.73271374     0.10300
C89         C  0.25933803  0.28649446  0.80311963    -0.53200
C90         C  0.27597690  0.31298882  0.78123696     0.10800
H91         H  0.17678914  0.27724456  0.76248864     0.15400
H92         H  0.27982265  0.32547897  0.72171385     0.01100
H93         H  0.26721328  0.20675129  0.75230569     0.15700
H94         H  0.26539695  0.28593373  0.83175503     0.15500
C95         C  0.86972127  0.52067315  0.48829859     0.30800
C96         C  0.86823157  0.47399797  0.42483945     0.30800
C97         C  0.85137776  0.53859372  0.45494823    -0.05400
C98         C  0.90809003  0.50770890  0.47225786    -0.06200
C99         C  0.84758854  0.48241018  0.48975415    -0.06100
C100        C  0.85178957  0.51539318  0.42280063    -0.05400
C101        C  0.90769191  0.48454178  0.43988064    -0.06200
C102        C  0.84777841  0.45867323  0.45824956    -0.06100
C103        C  0.84238918  0.53911755  0.39502141    -0.31500
N104        N  0.83296711  0.57443497  0.40951452     0.15000
C105        C  0.83818407  0.57459286  0.44589036    -0.31500
H106        H  0.83422876  0.59997447  0.46362931     0.17000
C107        C  0.94471597  0.48119174  0.42836043    -0.30500
N108        N  0.96707384  0.50035773  0.45305347     0.13700
C109        C  0.94490400  0.51706651  0.47957271    -0.30400
C110        C  0.82838761  0.42526438  0.46589116    -0.30700
N111        N  0.81632744  0.42830294  0.50098739     0.14300
H112        H  0.82389309  0.40047219  0.44748289     0.16900
C113        C  0.82606681  0.46377708  0.51497815    -0.30700
H114        H  0.81802232  0.47480536  0.54176727     0.16900
H115        H  0.95452306  0.53562718  0.50199369     0.16900
H116        H  0.84372841  0.53185045  0.36613159     0.17000
H117        H  0.95447414  0.46750243  0.40308138     0.16900
C118        C  0.77731827  0.83344533  0.19446755     0.87200
C119        C  0.75093552  0.80488975  0.17391564    -0.53000
C120        C  0.72854919  0.78360591  0.19574961     0.10200
C121        C  0.73307820  0.79412771  0.23633126     0.21100
C122        C  0.75027997  0.85893916  0.21887302    -0.53700
C123        C  0.72684121  0.83795978  0.24028850     0.10300
C124        C  0.79788306  0.80975263  0.22274938    -0.53200
C125        C  0.77473317  0.78883158  0.24427722     0.10800
H126        H  0.74938956  0.80301715  0.14448410     0.15400
H127        H  0.71431240  0.77718544  0.25405545     0.01100
H128        H  0.75118053  0.89020604  0.22181836     0.15700
H129        H  0.82811784  0.80792854  0.22380655     0.08400
C130        C  0.72189935  0.18895479  0.72553201     0.87200
C131        C  0.69193391  0.21668190  0.74267913    -0.53000
C132        C  0.67037846  0.23457756  0.71814316     0.10200
C133        C  0.68049963  0.22353633  0.67849359     0.21100
C134        C  0.69827359  0.16098690  0.70093037    -0.53700
C135        C  0.67747398  0.17917909  0.67576173     0.10300
C136        C  0.74400298  0.21434134  0.69930448    -0.53200
C137        C  0.72240200  0.23304507  0.67523091     0.10800
H138        H  0.68780186  0.22258703  0.77157892     0.15400
H139        H  0.66294583  0.23820223  0.65848525     0.01100
H140        H  0.69810475  0.12977554  0.70281233     0.15700
H141        H  0.77421275  0.21704194  0.69997178     0.15500
C142        C  0.45215955  0.86282264  0.46492955     0.30800
C143        C  0.51435874  0.86681726  0.42025975     0.30800
C144        C  0.44909455  0.84139843  0.42694343    -0.05400
C145        C  0.46285100  0.90368402  0.45284043    -0.06200
C146        C  0.48897467  0.84693499  0.47966026    -0.06100
C147        C  0.48103919  0.84369627  0.40437047    -0.05400
C148        C  0.49480637  0.90605401  0.43043770    -0.06200
C149        C  0.52021215  0.84975036  0.45735062    -0.06100
C150        C  0.46958203  0.83807527  0.36882089    -0.31500
N151        N  0.43235064  0.83130361  0.36861722     0.15000
C152        C  0.41931390  0.83598441  0.40322325    -0.31500
H153        H  0.38988624  0.83840595  0.41018057     0.17000
C154        C  0.49794620  0.94451948  0.42151569    -0.30500
N155        N  0.46977807  0.96479778  0.43815569     0.13700
C156        C  0.44787004  0.94040993  0.45696895    -0.30400
C157        C  0.55039273  0.83600951  0.47581995    -0.30700
N158        N  0.53823184  0.82432249  0.50862437     0.14300
H159        H  0.57916898  0.83490690  0.46629549     0.16900
C160        C  0.50080127  0.83096119  0.51147419    -0.30700
H161        H  0.48374037  0.82554873  0.53522929     0.16900
H162        H  0.42362887  0.94903958  0.47315019     0.16900
H163        H  0.48670248  0.84128147  0.34467505     0.17000
H164        H  0.51858211  0.95746291  0.40407003     0.16900
C165        C  0.19518790  0.76892721  0.13095887     0.87200
C166        C  0.17372897  0.74687803  0.16028822    -0.53000
C167        C  0.19581131  0.72471208  0.18123228     0.10200
C168        C  0.23754178  0.72622391  0.17061993     0.21100
C169        C  0.22643763  0.79165372  0.15161621    -0.53700
C170        C  0.24788654  0.76944905  0.17318019     0.10300
C171        C  0.21773679  0.73698402  0.10913910    -0.53200
C172        C  0.23935197  0.71439859  0.13008002     0.10800
H173        H  0.14400436  0.75063383  0.16507928     0.15400
H174        H  0.25588420  0.70824587  0.18728365     0.01100
H175        H  0.23133967  0.82240780  0.14893640     0.15700
H176        H  0.21901950  0.73370786  0.07974034     0.15500
C177        C  0.78113698  0.75981202  0.73065854     0.87200
C178        C  0.80231089  0.72543166  0.71197700    -0.53000
C179        C  0.78013998  0.69656880  0.69693810     0.10200
C180        C  0.73780875  0.70455876  0.70336033     0.21100
C181        C  0.75354035  0.77319854  0.70202421    -0.53700
C182        C  0.73110329  0.74452651  0.68754834     0.10300
C183        C  0.75599211  0.73976044  0.75904993    -0.53200
C184        C  0.73313443  0.71135154  0.74477200     0.10800
H185        H  0.83241560  0.72480400  0.70953188     0.15400
H186        H  0.71882531  0.68162909  0.69212307     0.01100
H187        H  0.75167508  0.80308851  0.69415665     0.15700
H188        H  0.75570655  0.74713770  0.78798854     0.15500
C189        C  0.51839409  0.48350056  0.08193116     0.30800
C190        C  0.45794353  0.53317413  0.08301685     0.30800
C191        C  0.52086834  0.51939674  0.10845797    -0.05400
C192        C  0.51077374  0.50414935  0.04562025    -0.06200
C193        C  0.48010889  0.46628688  0.09187394    -0.06100
C194        C  0.49017332  0.54489467  0.10894049    -0.05400
C195        C  0.47985975  0.52931287  0.04690348    -0.06200
C196        C  0.45000073  0.49143915  0.09266070    -0.06100
C197        C  0.50445142  0.58119416  0.11858832    -0.31500
N198        N  0.54103150  0.57802887  0.12659011     0.15000
C199        C  0.55176577  0.54111006  0.11897298    -0.31500
H200        H  0.58060123  0.53154418  0.11781007     0.17000
C201        C  0.47751415  0.54625482  0.01399187    -0.30500
N202        N  0.50531596  0.53225293  0.99201180     0.13700
C203        C  0.52629208  0.50733417  0.01094812    -0.30400
C204        C  0.41960008  0.47211160  0.10636912    -0.30700
N205        N  0.43030415  0.43563569  0.11337759     0.14300
H206        H  0.39195801  0.48391709  0.11175607     0.16900
C207        C  0.46727770  0.43171926  0.10512680    -0.30700
H208        H  0.48372947  0.40610266  0.10949177     0.16900
H209        H  0.55026448  0.49216524  0.99970590     0.16900
H210        H  0.49013566  0.60861326  0.11686527     0.17000
H211        H  0.45604381  0.56594108  0.00576910     0.16900
C212        C  0.51567612  0.56584014  0.85749524     0.30800
C213        C  0.45463245  0.51704150  0.86547403     0.30800
C214        C  0.51721379  0.52602618  0.83664435    -0.05400
C215        C  0.50792151  0.55197874  0.89677607    -0.06200
C216        C  0.47747199  0.58127469  0.84602688    -0.06100
C217        C  0.48630691  0.50165521  0.84015394    -0.05400
C218        C  0.47619764  0.52810256  0.90011783    -0.06200
C219        C  0.44685908  0.55632629  0.84897154    -0.06100
C220        C  0.49512217  0.46704064  0.82205386    -0.31500
N221        N  0.53070028  0.46931728  0.80922536     0.15000
C222        C  0.54422426  0.50527634  0.81734733    -0.31500
H223        H  0.57195686  0.51531108  0.81038454     0.17000
C224        C  0.47355840  0.51695005  0.93529132    -0.30500
N225        N  0.50296677  0.53213697  0.95382504     0.13700
C226        C  0.52461199  0.55289981  0.93092366    -0.30400
C227        C  0.41870106  0.57160721  0.82871510    -0.30700
N228        N  0.43002303  0.60647898  0.81703308     0.14300
H229        H  0.39264792  0.55775792  0.82112255     0.16900
C230        C  0.46619032  0.61228991  0.82645787    -0.30700
H231        H  0.48329940  0.63650015  0.81845570     0.16900
H232        H  0.55031060  0.56722715  0.93871805     0.16900
H233        H  0.47803459  0.44114949  0.81986838     0.17000
H234        H  0.45172877  0.49926189  0.94681220     0.16900
O235        O  0.01176639  0.03989437  0.03245738    -0.79400
O236        O  0.93845605  0.07760354  0.89840153    -0.79400
O237        O  0.06028808  0.04054508  0.91122035    -0.79400
O238        O  0.90736904  0.03675144  0.97961105    -0.79400
O239        O  0.01543656  0.08147658  0.90186317    -0.79500
O240        O  0.95852235  0.07205403  0.98970217    -0.79400
O241        O  0.89691209  0.03216420  0.90576796    -0.79400
O242        O  0.04265290  0.05397768  0.98265369    -0.79400
C243        C  0.03798309  0.05809122  0.01765059     1.10300
C244        C  0.90515222  0.06587362  0.89551982     1.10200
C245        C  0.04996430  0.07348614  0.90122597     1.10300
C246        C  0.92328440  0.06754134  0.99285645     1.10200
O247        O  0.95260719  0.99849083  0.01706826    -0.79400
O248        O  0.01961745  0.00593703  0.86389493    -0.79500
O249        O  0.07505142  0.98598395  0.96111066    -0.79400
O250        O  0.93425855  0.95866700  0.90046356    -0.79400
O251        O  0.94364403  0.00201164  0.85910473    -0.79400
O252        O  0.02237667  0.97367296  0.99030865    -0.79400
O253        O  0.93916469  0.95732182  0.97375827    -0.79300
O254        O  0.02712597  0.96475160  0.90707832    -0.79400
Co255      Co  0.99055488  0.02527246  0.98707831     1.51500
Co256      Co  0.97912228  0.04124393  0.88436658     1.51700
Co257      Co  0.03026171  0.00763540  0.94467662     1.51600
Co258      Co  0.92312477  0.99694898  0.93985783     1.51500
O259        O  0.97599120  0.01873397  0.93468425    -1.41300
C260        C  0.93781631  0.96687554  0.00700541     1.10200
C261        C  0.03165565  0.97354940  0.87423060     1.10300
C262        C  0.05730407  0.96530494  0.98307468     1.10300
C263        C  0.93342239  0.96797843  0.86764483     1.10200
C264        C  0.86311425  0.83346573  0.74907354    -0.11100
C265        C  0.85127258  0.85193097  0.78169384     0.11500
C266        C  0.81487172  0.84429345  0.79510748    -0.02900
C267        C  0.79313843  0.81514188  0.77735202    -0.05700
C268        C  0.80591604  0.79380291  0.74595158    -0.16400
C269        C  0.84011760  0.80681266  0.72945573     0.02500
C270        C  0.87675789  0.88063217  0.80037401     0.12400
C271        C  0.79867035  0.86774765  0.82745698     0.63100
H272        H  0.76526516  0.80982532  0.78762462     0.12500
C273        C  0.85333981  0.79620685  0.69087701     0.55200
H274        H  0.89021896  0.84134717  0.73798293     0.08300
C275        C  0.90021587  0.87004023  0.82890606    -0.05500
C276        C  0.91876357  0.89944440  0.84939783    -0.06300
C277        C  0.91742367  0.93877861  0.84050734    -0.15900
C278        C  0.89784439  0.94847005  0.80860886    -0.01500
C279        C  0.87700740  0.91919916  0.78968339    -0.09000
C280        C  0.90624676  0.82773813  0.83706167     0.65300
H281        H  0.93406482  0.89170931  0.87317653     0.10700
C282        C  0.89803177  0.98926889  0.79478429     0.63700
H283        H  0.86005976  0.92626455  0.76667199     0.08100
F284        F  0.88174814  0.76916978  0.69176868    -0.19400
F285        F  0.86733114  0.82885985  0.67475635    -0.15600
F286        F  0.82500811  0.78217930  0.66884674    -0.19100
F287        F  0.79728409  0.90643408  0.81928912    -0.22500
F288        F  0.82066066  0.86400042  0.85775702    -0.24000
F289        F  0.76274141  0.85588684  0.83622505    -0.18000
F290        F  0.87800789  0.99163800  0.76294271    -0.20400
F291        F  0.93447324  0.00055151  0.78754162    -0.21600
F292        F  0.88210411  0.01466140  0.82049916    -0.18800
F293        F  0.93106086  0.82365769  0.86528848    -0.18900
F294        F  0.92088293  0.80837754  0.80648176    -0.22700
F295        F  0.87281165  0.81040390  0.84650118    -0.24300
C296        C  0.67581862  0.63826797  0.79761971    -0.11100
C297        C  0.64206695  0.65846727  0.80334124     0.11500
C298        C  0.63971730  0.69751079  0.79310076    -0.02900
C299        C  0.67027188  0.71381136  0.77438735    -0.05700
C300        C  0.70311883  0.69269842  0.76657586    -0.16400
C301        C  0.70662167  0.65491265  0.77960352     0.02500
C302        C  0.60895548  0.63683381  0.81735220     0.12400
C303        C  0.60524309  0.72184434  0.80212100     0.63100
H304        H  0.66866707  0.74319985  0.76533658     0.12500
C305        C  0.74289315  0.63259633  0.77482318     0.55200
H306        H  0.67739197  0.60879922  0.80646192     0.08300
C307        C  0.58662054  0.61355069  0.79366842    -0.05500
C308        C  0.55656220  0.59283705  0.80839094    -0.06300
C309        C  0.54787076  0.59347157  0.84609260    -0.15900
C310        C  0.56633235  0.62247299  0.86825962    -0.01500
C311        C  0.59866798  0.64078544  0.85427571    -0.09000
C312        C  0.59419198  0.61076909  0.75281748     0.65300
H313        H  0.53910543  0.57576720  0.78996125     0.10700
C314        C  0.55064119  0.64040884  0.90351056     0.63700
H315        H  0.61446465  0.66074099  0.87178697     0.08100
F316        F  0.75035087  0.62539894  0.73824297    -0.19400
F317        F  0.74134216  0.59741259  0.79150862    -0.15600
F318        F  0.77184796  0.65413231  0.79016558    -0.19100
F319        F  0.60018750  0.72504736  0.83942031    -0.22500
F320        F  0.57381644  0.70482443  0.78666400    -0.24000
F321        F  0.60864421  0.75889911  0.78945482    -0.18000
F322        F  0.57319574  0.63120003  0.93215731    -0.20400
F323        F  0.51416965  0.62942734  0.91032841    -0.21600
F324        F  0.55044035  0.68035276  0.90141417    -0.18800
F325        F  0.56897287  0.58644472  0.73477156    -0.18900
F326        F  0.62970712  0.59639924  0.74582213    -0.22700
F327        F  0.59139375  0.64701171  0.73853045    -0.24300
C328        C  0.13827184  0.85601666  0.09692552    -0.11100
C329        C  0.12902668  0.84335052  0.06169374     0.11500
C330        C  0.13819543  0.80508510  0.04971880    -0.02900
C331        C  0.15823526  0.78155345  0.07322547    -0.05700
C332        C  0.16911161  0.79463038  0.10860668    -0.16400
C333        C  0.15486422  0.83152033  0.12159447     0.02500
C334        C  0.10875524  0.87103482  0.03889209     0.12400
C335        C  0.12687839  0.78918811  0.01229739     0.63100
H336        H  0.16456879  0.75230241  0.06390759     0.12500
C337        C  0.15402151  0.84725423  0.16071983     0.55200
H338        H  0.13057244  0.88525417  0.10598933     0.08300
C339        C  0.07120774  0.88210705  0.04633400    -0.05500
C340        C  0.05544104  0.91201927  0.02665600    -0.06300
C341        C  0.07585196  0.93154615  0.99997315    -0.15900
C342        C  0.11320489  0.91895699  0.99143256    -0.01500
C343        C  0.12884415  0.88918539  0.01150217    -0.09000
C344        C  0.04814011  0.86347620  0.07590274     0.65300
H345        H  0.02713872  0.92127173  0.03315166     0.10700
C346        C  0.13736924  0.93664309  0.96198851     0.63700
H347        H  0.15766922  0.88056780  0.00685677     0.08100
F348        F  0.11805735  0.85941326  0.16966031    -0.19400
F349        F  0.17774858  0.87889781  0.16405005    -0.15600
F350        F  0.16347298  0.82053842  0.18557437    -0.19100
F351        F  0.14616109  0.80854953  0.98579085    -0.22500
F352        F  0.08885161  0.79408752  0.00763102    -0.24000
F353        F  0.13463967  0.75003068  0.00749699    -0.18000
F354        F  0.17109832  0.91740680  0.95692054    -0.20400
F355        F  0.14551247  0.97484924  0.97157505    -0.21600
F356        F  0.11901658  0.93457317  0.92907156    -0.18800
F357        F  0.01053269  0.87252002  0.07358123    -0.18900
F358        F  0.06049201  0.87649211  0.10973089    -0.22700
F359        F  0.05137795  0.82356683  0.07290507    -0.24300
C360        C  0.36360630  0.58426023  0.06226303    -0.11100
C361        C  0.36045120  0.61019006  0.09238383     0.11500
C362        C  0.38629388  0.60814193  0.12092890    -0.02900
C363        C  0.41657221  0.58251974  0.11670305    -0.05700
C364        C  0.42235880  0.55859973  0.08500230    -0.16400
C365        C  0.39274537  0.55680536  0.05889061     0.02500
C366        C  0.32721052  0.63583983  0.09588858     0.12400
C367        C  0.38115406  0.63202177  0.15635430     0.63100
H368        H  0.43494859  0.57987288  0.13949266     0.12500
C369        C  0.38766415  0.52599827  0.02839303     0.55200
H370        H  0.34182818  0.58419961  0.04193899     0.08300
C371        C  0.32768868  0.67447465  0.08456531    -0.05500
C372        C  0.29768180  0.69907124  0.09504417    -0.06300
C373        C  0.26692251  0.68548267  0.11500796    -0.15900
C374        C  0.26461170  0.64548014  0.12221723    -0.01500
C375        C  0.29519945  0.62142569  0.11295351    -0.09000
C376        C  0.35968105  0.68927761  0.06146550     0.65300
H377        H  0.29854015  0.72941314  0.08869740     0.10700
C378        C  0.22962588  0.62780891  0.13824660     0.63700
H379        H  0.29493026  0.59126329  0.11996235     0.08100
F380        F  0.38896829  0.54331522  0.99518316    -0.19400
F381        F  0.35280480  0.50890576  0.03228649    -0.15600
F382        F  0.41359551  0.49660721  0.02783403    -0.19100
F383        F  0.34818117  0.62138270  0.17331072    -0.22500
F384        F  0.37970711  0.67098776  0.14945731    -0.24000
F385        F  0.41017239  0.62668987  0.18026310    -0.18000
F386        F  0.19937944  0.63669727  0.11712417    -0.20400
F387        F  0.22396962  0.64198399  0.17344246    -0.21600
F388        F  0.23187800  0.58781553  0.13898409    -0.18800
F389        F  0.35382117  0.72706043  0.05175767    -0.18900
F390        F  0.36292162  0.66624098  0.02992209    -0.22700
F391        F  0.39292197  0.68808414  0.08023704    -0.24300
C392        C  0.59704235  0.75992396  0.56463687    -0.11100
C393        C  0.61490702  0.78728601  0.58792111     0.11500
C394        C  0.60631440  0.82721171  0.58551400    -0.02900
C395        C  0.57982693  0.83828282  0.55982083    -0.05700
C396        C  0.56217516  0.81090226  0.53659379    -0.16400
C397        C  0.57055689  0.77116934  0.53902469     0.02500
C398        C  0.64401195  0.77350757  0.61310136     0.12400
C399        C  0.62537651  0.85800550  0.60959906     0.63100
H400        H  0.57318687  0.86855552  0.55691086     0.12500
C401        C  0.55158343  0.74114058  0.51426060     0.55200
H402        H  0.60442586  0.72967373  0.56638737     0.08300
C403        C  0.63493823  0.75691959  0.64668889    -0.05500
C404        C  0.66426912  0.74665596  0.66979741    -0.06300
C405        C  0.70200055  0.75199608  0.66003936    -0.15900
C406        C  0.71094273  0.76579903  0.62520900    -0.01500
C407        C  0.68168398  0.77684787  0.60258250    -0.09000
C408        C  0.59450537  0.75029895  0.65803439     0.65300
H409        H  0.65794506  0.73509286  0.69606522     0.10700
C410        C  0.75090549  0.76993636  0.61147911     0.63700
H411        H  0.68816771  0.78867836  0.57641562     0.08100
F412        F  0.51327477  0.74267686  0.51996290    -0.19400
F413        F  0.56350783  0.70396696  0.52068478    -0.15600
F414        F  0.55948758  0.74852165  0.47833554    -0.19100
F415        F  0.66337633  0.85849597  0.60214034    -0.22500
F416        F  0.61971803  0.85018733  0.64578448    -0.24000
F417        F  0.61151479  0.89466753  0.60406230    -0.18000
F418        F  0.75251551  0.76523072  0.57393826    -0.20400
F419        F  0.77401074  0.74226957  0.62529620    -0.21600
F420        F  0.76421178  0.80646632  0.62140949    -0.18800
F421        F  0.59175313  0.73587316  0.69251352    -0.18900
F422        F  0.57795568  0.72384194  0.63391009    -0.22700
F423        F  0.57494021  0.78477219  0.65811175    -0.24300
C424        C  0.30341177  0.82007425  0.24998359    -0.11100
C425        C  0.33871367  0.80332478  0.24454152     0.11500
C426        C  0.34456158  0.77655950  0.21476773    -0.02900
C427        C  0.31435368  0.76725879  0.19167164    -0.05700
C428        C  0.27893940  0.78432610  0.19686609    -0.16400
C429        C  0.27326809  0.81104843  0.22687660     0.02500
C430        C  0.36619929  0.81017312  0.27413497     0.12400
C431        C  0.38142152  0.75601327  0.20697707     0.63100
H432        H  0.31838271  0.74600721  0.16942074     0.12500
C433        C  0.23552981  0.82908826  0.23576684     0.55200
H434        H  0.29942429  0.83962747  0.27350594     0.08300
C435        C  0.38670373  0.84521861  0.27855815    -0.05500
C436        C  0.40849238  0.85135657  0.31002662    -0.06300
C437        C  0.41010709  0.82357290  0.33673510    -0.15900
C438        C  0.39125206  0.78770888  0.33118073    -0.01500
C439        C  0.36918680  0.78177851  0.30003607    -0.09000
C440        C  0.38574699  0.87555896  0.24992985     0.65300
H441        H  0.42401777  0.87810459  0.31442255     0.10700
C442        C  0.39529433  0.75551457  0.35763586     0.63700
H443        H  0.35342301  0.75510612  0.29591351     0.08100
F444        F  0.23526857  0.84938551  0.26904637    -0.19400
F445        F  0.20833343  0.80063176  0.23718748    -0.15600
F446        F  0.22701662  0.85487738  0.20957370    -0.19100
F447        F  0.37775216  0.71757714  0.21556059    -0.22500
F448        F  0.41088101  0.77218721  0.22644427    -0.24000
F449        F  0.39033714  0.75778632  0.17038403    -0.18000
F450        F  0.37852682  0.76617656  0.39053172    -0.20400
F451        F  0.43284548  0.74821304  0.36300392    -0.21600
F452        F  0.37864885  0.72141769  0.34476890    -0.18800
F453        F  0.40999682  0.90602641  0.25798556    -0.18900
F454        F  0.35001897  0.89041627  0.24759594    -0.22700
F455        F  0.39615569  0.85891715  0.21649775    -0.24300
C456        C  0.85627996  0.13740385  0.83424670    -0.11100
C457        C  0.81971882  0.12302183  0.83451248     0.11500
C458        C  0.81040621  0.09203131  0.85681053    -0.02900
C459        C  0.83859884  0.07617360  0.87819295    -0.05700
C460        C  0.87608807  0.08924199  0.87688019    -0.16400
C461        C  0.88482207  0.12108672  0.85464193     0.02500
C462        C  0.79309869  0.13912715  0.80833607     0.12400
C463        C  0.77117473  0.07497553  0.85689087     0.63100
H464        H  0.83170072  0.05208820  0.89496137     0.12500
C465        C  0.92418296  0.13674574  0.85018831     0.55200
H466        H  0.86254268  0.16077210  0.81638498     0.08300
C467        C  0.77543677  0.17520297  0.81492931    -0.05500
C468        C  0.75363381  0.19024066  0.78726970    -0.06300
C469        C  0.74805867  0.17039123  0.75318977    -0.15900
C470        C  0.76987262  0.13620991  0.74557952    -0.01500
C471        C  0.79015310  0.12036055  0.77402773    -0.09000
C472        C  0.78056719  0.19841893  0.85062698     0.65300
H473        H  0.74267117  0.21904489  0.79193502     0.10700
C474        C  0.77459767  0.11576519  0.70831531     0.63700
H475        H  0.80567198  0.09369791  0.76895093     0.08100
F476        F  0.92587609  0.16752293  0.82725497    -0.19400
F477        F  0.94676267  0.10765643  0.83526888    -0.15600
F478        F  0.93752856  0.14989611  0.88361988    -0.19100
F479        F  0.76317930  0.05899362  0.82276435    -0.22500
F480        F  0.74531926  0.10359855  0.86579015    -0.24000
F481        F  0.76733052  0.04619770  0.88175531    -0.18000
F482        F  0.76806452  0.13960697  0.67994323    -0.20400
F483        F  0.75083812  0.08408764  0.70583688    -0.21600
F484        F  0.81102175  0.10265359  0.70375296    -0.18800
F485        F  0.75743918  0.23054043  0.85321135    -0.18900
F486        F  0.81720026  0.21115084  0.85335282    -0.22700
F487        F  0.77228809  0.17568593  0.87969720    -0.24300
C488        C  0.60195220  0.39067914  0.79410555    -0.11100
C489        C  0.58717001  0.37079960  0.76359623     0.11500
C490        C  0.55305144  0.38275723  0.74862883    -0.02900
C491        C  0.53618266  0.41670093  0.76329417    -0.05700
C492        C  0.55136808  0.43720582  0.79344003    -0.16400
C493        C  0.58401023  0.42324684  0.81011121     0.02500
C494        C  0.60691118  0.33571756  0.74987691     0.12400
C495        C  0.53375056  0.35864991  0.71877171     0.63100
H496        H  0.51026566  0.42696788  0.75220353     0.12500
C497        C  0.59857476  0.44078362  0.84583882     0.55200
H498        H  0.62741228  0.37984676  0.80572726     0.08300
C499        C  0.63546489  0.33718759  0.72318551    -0.05500
C500        C  0.65317292  0.30251691  0.71187786    -0.06300
C501        C  0.64537671  0.26740813  0.72850856    -0.15900
C502        C  0.61750133  0.26643836  0.75638951    -0.01500
C503        C  0.59862674  0.30086883  0.76629626    -0.09000
C504        C  0.64877176  0.37546308  0.70854419     0.65300
H505        H  0.67500175  0.30312054  0.69129329     0.10700
C506        C  0.60623292  0.23093231  0.77703859     0.63700
H507        H  0.57738526  0.30077564  0.78760494     0.08100
F508        F  0.61532605  0.47618416  0.84032469    -0.19400
F509        F  0.62500652  0.41723377  0.86095415    -0.15600
F510        F  0.56944025  0.44553309  0.87070703    -0.19100
F511        F  0.52513702  0.32244628  0.73129959    -0.22500
F512        F  0.55687238  0.35418775  0.68856246    -0.24000
F513        F  0.50081133  0.37562686  0.70810673    -0.18000
F514        F  0.61700917  0.23627519  0.81290086    -0.20400
F515        F  0.62171436  0.19690307  0.76313842    -0.21600
F516        F  0.56771935  0.22655494  0.77610385    -0.18800
F517        F  0.67736941  0.37026262  0.68313182    -0.18900
F518        F  0.66211943  0.39908233  0.73683723    -0.22700
F519        F  0.61966822  0.39405993  0.69217894    -0.24300
C520        C  0.86160839  0.90988424  0.05469701    -0.11100
C521        C  0.87497512  0.91131949  0.09038415     0.11500
C522        C  0.91070734  0.92730718  0.09785148    -0.02900
C523        C  0.93092266  0.94390557  0.06937911    -0.05700
C524        C  0.91700469  0.94389354  0.03377469    -0.16400
C525        C  0.88188426  0.92605496  0.02603749     0.02500
C526        C  0.85143411  0.89357320  0.11872216     0.12400
C527        C  0.92751753  0.92637252  0.13553749     0.63100
H528        H  0.95790843  0.95726658  0.07474247     0.12500
C529        C  0.86493914  0.92528769  0.98828203     0.55200
H530        H  0.83467628  0.89627515  0.04966835     0.08300
C531        C  0.82122279  0.91324132  0.13610998    -0.05500
C532        C  0.79849096  0.89312791  0.16062973    -0.06300
C533        C  0.80410814  0.85355016  0.16773909    -0.15900
C534        C  0.83356144  0.83352557  0.14762692    -0.01500
C535        C  0.85718134  0.85458509  0.12487554    -0.09000
C536        C  0.81246999  0.95505631  0.12792134     0.65300
H537        H  0.77498409  0.90838254  0.17266200     0.10700
C538        C  0.84250354  0.79032528  0.14694403     0.63700
H539        H  0.87980366  0.83979145  0.11011541     0.08100
F540        F  0.82965006  0.90852748  0.98775289    -0.19400
F541        F  0.88745740  0.90392731  0.96415963    -0.15600
F542        F  0.86153914  0.96267920  0.97666666    -0.19100
F543        F  0.93256672  0.88834677  0.14470162    -0.22500
F544        F  0.90397139  0.94451014  0.16091276    -0.24000
F545        F  0.96193836  0.94491881  0.13720968    -0.18000
F546        F  0.84318622  0.77601235  0.11121252    -0.20400
F547        F  0.81756783  0.76790298  0.16526305    -0.21600
F548        F  0.87755328  0.78530661  0.16162790    -0.18800
F549        F  0.78257162  0.96945924  0.14851179    -0.18900
F550        F  0.80351086  0.95745280  0.09163560    -0.22700
F551        F  0.84318845  0.97840775  0.13532860    -0.24300
C552        C  0.67925467  0.69485840  0.15260962    -0.11100
C553        C  0.64226681  0.70185376  0.16381894     0.11500
C554        C  0.63353000  0.73571456  0.18514672    -0.02900
C555        C  0.66261146  0.76182381  0.19426591    -0.05700
C556        C  0.69967890  0.75539511  0.18233672    -0.16400
C557        C  0.70829333  0.72118364  0.16106017     0.02500
C558        C  0.61389727  0.67190005  0.15388792     0.12400
C559        C  0.59383588  0.74403465  0.19844431     0.63100
H560        H  0.65665396  0.78737397  0.21134991     0.12500
C561        C  0.74776845  0.71129522  0.14817545     0.55200
H562        H  0.68511721  0.66817024  0.13709348     0.08300
C563        C  0.59989554  0.66712813  0.11804700    -0.05500
C564        C  0.57553302  0.63591923  0.10992029    -0.06300
C565        C  0.56537879  0.60972031  0.13634401    -0.15900
C566        C  0.57838243  0.61511751  0.17225930    -0.01500
C567        C  0.60303838  0.64596451  0.18041529    -0.09000
C568        C  0.61096146  0.69454062  0.08851589     0.65300
H569        H  0.56467521  0.63112008  0.08273446     0.10700
C570        C  0.56564324  0.58841347  0.20164975     0.63700
H571        H  0.61452986  0.64974832  0.20745925     0.08100
F572        F  0.75987522  0.73760223  0.12335946    -0.19400
F573        F  0.74975211  0.67477264  0.13122155    -0.15600
F574        F  0.77160844  0.71174822  0.17741991    -0.19100
F575        F  0.58274236  0.71660545  0.22267648    -0.22500
F576        F  0.56963363  0.74296196  0.16934610    -0.24000
F577        F  0.59096145  0.78020890  0.21596797    -0.18000
F578        F  0.57880219  0.55136031  0.19384642    -0.20400
F579        F  0.52692881  0.58753616  0.20331641    -0.21600
F580        F  0.57864800  0.60063133  0.23555113    -0.18800
F581        F  0.59104360  0.68707724  0.05690034    -0.18900
F582        F  0.64861040  0.69051976  0.08022990    -0.22700
F583        F  0.60403632  0.73242926  0.10024742    -0.24300
C584        C  0.59244870  0.83476436  0.35153621    -0.11100
C585        C  0.61275922  0.86910836  0.34835099     0.11500
C586        C  0.60304738  0.90200643  0.37042067    -0.02900
C587        C  0.57270901  0.89917146  0.39498928    -0.05700
C588        C  0.55024888  0.86554022  0.39659255    -0.16400
C589        C  0.56317795  0.83129325  0.37695774     0.02500
C590        C  0.64532417  0.86815384  0.32290774     0.12400
C591        C  0.62417010  0.94004065  0.36751211     0.63100
H592        H  0.56741588  0.92304049  0.41403214     0.12500
C593        C  0.54953725  0.78983537  0.38175325     0.55200
H594        H  0.60101036  0.80948042  0.33500981     0.08300
C595        C  0.67904825  0.84946330  0.33171603    -0.05500
C596        C  0.70598489  0.84273391  0.30418072    -0.06300
C597        C  0.70068908  0.85441242  0.26855333    -0.15900
C598        C  0.66791785  0.87514504  0.26020217    -0.01500
C599        C  0.64050630  0.88140850  0.28771336    -0.09000
C600        C  0.68600259  0.83499807  0.36954878     0.65300
H601        H  0.73060601  0.82603521  0.30982954     0.10700
C602        C  0.66111880  0.88914788  0.22227596     0.63700
H603        H  0.61433947  0.89536055  0.28162584     0.08100
F604        F  0.58018088  0.76601125  0.38581642    -0.19400
F605        F  0.53049892  0.77704486  0.35097393    -0.15600
F606        F  0.52690811  0.78508527  0.41175622    -0.19100
F607        F  0.62002228  0.95362012  0.33298414    -0.22500
F608        F  0.66180994  0.93473009  0.37391279    -0.24000
F609        F  0.61096835  0.96819825  0.39227871    -0.18000
F610        F  0.62606452  0.90567671  0.21947877    -0.20400
F611        F  0.66352691  0.85856472  0.19690225    -0.21600
F612        F  0.68753507  0.91685275  0.21404091    -0.18800
F613        F  0.72223218  0.82157897  0.37299690    -0.18900
F614        F  0.66176716  0.80491448  0.37667619    -0.22700
F615        F  0.68059058  0.86465960  0.39543471    -0.24300
C616        C  0.85294605  0.55453814  0.58826934    -0.11100
C617        C  0.84587175  0.59398865  0.58397773     0.11500
C618        C  0.85998497  0.61121646  0.55234755    -0.02900
C619        C  0.87223321  0.58677269  0.52281691    -0.05700
C620        C  0.87090856  0.54606349  0.52424846    -0.16400
C621        C  0.86869899  0.53109863  0.55979372     0.02500
C622        C  0.82727007  0.61711244  0.61430346     0.12400
C623        C  0.86381703  0.65495193  0.55068400     0.63100
H624        H  0.88319502  0.59934009  0.49851901     0.12500
C625        C  0.88801019  0.49425982  0.57069661     0.55200
H626        H  0.84776787  0.54240468  0.61456375     0.08300
C627        C  0.78909255  0.62790440  0.61310002    -0.05500
C628        C  0.77445836  0.65305716  0.64096462    -0.06300
C629        C  0.79547498  0.66451359  0.67184959    -0.15900
C630        C  0.83165763  0.64779921  0.67556014    -0.01500
C631        C  0.84767011  0.62657354  0.64575400    -0.09000
C632        C  0.76355172  0.61149992  0.58340274     0.65300
H633        H  0.74657574  0.66449978  0.63812267     0.10700
C634        C  0.85383056  0.64927660  0.71055745     0.63700
H635        H  0.87610317  0.61596250  0.64756109     0.08100
F636        F  0.86299342  0.47005340  0.58766495    -0.19400
F637        F  0.91582168  0.50427995  0.59525834    -0.15600
F638        F  0.90470928  0.47416367  0.54168680    -0.19100
F639        F  0.88657927  0.66860201  0.57860042    -0.22500
F640        F  0.82931663  0.67266831  0.55442575    -0.24000
F641        F  0.87968170  0.66563961  0.51809049    -0.18000
F642        F  0.86736778  0.61268387  0.71691567    -0.20400
F643        F  0.83239185  0.66071370  0.74055300    -0.21600
F644        F  0.88390412  0.67427635  0.70724128    -0.18800
F645        F  0.72702235  0.62411924  0.58832783    -0.18900
F646        F  0.76346910  0.57147342  0.58400240    -0.22700
F647        F  0.77574765  0.62231014  0.54956047    -0.24300
C648        C  0.80487477  0.33859537  0.55449812    -0.11100
C649        C  0.77015189  0.34559544  0.57153332     0.11500
C650        C  0.75047967  0.38008517  0.56492756    -0.02900
C651        C  0.76549363  0.40550100  0.53955499    -0.05700
C652        C  0.80004163  0.39829004  0.52211623    -0.16400
C653        C  0.82068178  0.36482636  0.53041464     0.02500
C654        C  0.75658901  0.31708110  0.59782169     0.12400
C655        C  0.71493829  0.39091616  0.58590896     0.63100
H656        H  0.75120381  0.43219910  0.53409230     0.12500
C657        C  0.86002261  0.35782556  0.51557329     0.55200
H658        H  0.81988111  0.31258713  0.56091437     0.08300
C659        C  0.73669694  0.28326959  0.58652420    -0.05500
C660        C  0.72645115  0.25656956  0.61275720    -0.06300
C661        C  0.73675101  0.26184233  0.64937772    -0.15900
C662        C  0.75703499  0.29576422  0.66062043    -0.01500
C663        C  0.76658801  0.32276011  0.63437570    -0.09000
C664        C  0.72720700  0.27504494  0.54678567     0.65300
H665        H  0.71063809  0.23089986  0.60470741     0.10700
C666        C  0.76905971  0.30396692  0.69974619     0.63700
H667        H  0.78273978  0.34838773  0.64203263     0.08100
F668        F  0.85885703  0.34972940  0.47853570    -0.19400
F669        F  0.87694220  0.32681760  0.53144574    -0.15600
F670        F  0.88205799  0.39028043  0.52251548    -0.19100
F671        F  0.72289535  0.39575099  0.62249677    -0.22500
F672        F  0.68826475  0.36211173  0.58125604    -0.24000
F673        F  0.69982113  0.42518650  0.57456269    -0.18000
F674        F  0.79932361  0.28097872  0.70733213    -0.20400
F675        F  0.74010382  0.29679479  0.72378099    -0.21600
F676        F  0.77978738  0.34227818  0.70567064    -0.18800
F677        F  0.70657090  0.24124684  0.54182179    -0.18900
F678        F  0.75984501  0.27112176  0.52645370    -0.22700
F679        F  0.70650708  0.30512427  0.53380614    -0.24300
C680        C  0.78451395  0.65770642  0.36780924    -0.11100
C681        C  0.81296172  0.67131257  0.34498074     0.11500
C682        C  0.84884236  0.65391058  0.34498766    -0.02900
C683        C  0.85453922  0.62232490  0.36715886    -0.05700
C684        C  0.82569846  0.60792369  0.38893416    -0.16400
C685        C  0.79007762  0.62555671  0.38931824     0.02500
C686        C  0.80332602  0.70149635  0.31909771     0.12400
C687        C  0.88077808  0.66827858  0.32144823     0.63100
H688        H  0.88154886  0.60823591  0.36763804     0.12500
C689        C  0.75781451  0.60915211  0.41098751     0.55200
H690        H  0.75746903  0.67177724  0.36769033     0.08300
C691        C  0.78141940  0.69250139  0.28802242    -0.05500
C692        C  0.77323324  0.72215555  0.26457462    -0.06300
C693        C  0.78741442  0.75982470  0.27007979    -0.15900
C694        C  0.80971123  0.76892610  0.30100394    -0.01500
C695        C  0.81662035  0.73947173  0.32548203    -0.09000
C696        C  0.76636700  0.65187901  0.27960271     0.65300
H697        H  0.75495592  0.71615087  0.24180354     0.10700
C698        C  0.82584214  0.80922588  0.30863891     0.63700
H699        H  0.83286514  0.74569366  0.34971607     0.08100
F700        F  0.75306265  0.57029787  0.40131681    -0.19400
F701        F  0.72453402  0.62803109  0.40463971    -0.15600
F702        F  0.76517304  0.61305560  0.44774581    -0.19100
F703        F  0.89095280  0.70533862  0.33321468    -0.22500
F704        F  0.86986476  0.66867804  0.28551993    -0.24000
F705        F  0.91206653  0.64489499  0.32310814    -0.18000
F706        F  0.84163441  0.81276391  0.34282336    -0.20400
F707        F  0.79820805  0.83693586  0.30696437    -0.21600
F708        F  0.85352502  0.81672675  0.28339197    -0.18800
F709        F  0.75091599  0.64847984  0.24524542    -0.18900
F710        F  0.73880688  0.64309070  0.30460748    -0.22700
F711        F  0.79491670  0.62505495  0.28096845    -0.24300
C712        C  0.10024511  0.14808762  0.84396408    -0.11100
C713        C  0.13562757  0.14927778  0.85980000     0.11500
C714        C  0.14253295  0.12725624  0.89054283    -0.02900
C715        C  0.11378229  0.10303237  0.90335508    -0.05700
C716        C  0.07823703  0.10129540  0.88719073    -0.16400
C717        C  0.07148498  0.12424378  0.85675102     0.02500
C718        C  0.16431150  0.17445870  0.84308532     0.12400
C719        C  0.17989078  0.12972093  0.90977602     0.63100
H720        H  0.11881614  0.08539225  0.92633092     0.12500
C721        C  0.03425223  0.12390756  0.83755935     0.55200
H722        H  0.09549878  0.16607757  0.82104370     0.08300
C723        C  0.18290385  0.16302921  0.81044684    -0.05500
C724        C  0.20533437  0.19025575  0.79304922    -0.06300
C725        C  0.21142929  0.22848952  0.80740825    -0.15900
C726        C  0.19091806  0.24014572  0.83992429    -0.01500
C727        C  0.16849919  0.21241373  0.85721233    -0.09000
C728        C  0.17823567  0.12236789  0.79333866     0.65300
H729        H  0.21593397  0.18177789  0.76647350     0.10700
C730        C  0.19133272  0.28097645  0.85757521     0.63700
H731        H  0.15299491  0.22043341  0.88183972     0.08100
F732        F  0.02355954  0.08622381  0.82837027    -0.19400
F733        F  0.03550363  0.14416246  0.80586942    -0.15600
F734        F  0.00805893  0.14138773  0.86055692    -0.19100
F735        F  0.18593524  0.16725603  0.92303680    -0.22500
F736        F  0.20852155  0.11929756  0.88580540    -0.24000
F737        F  0.18108777  0.10547883  0.93876571    -0.18000
F738        F  0.16040673  0.28730346  0.88006508    -0.20400
F739        F  0.19041941  0.30906779  0.83201048    -0.21600
F740        F  0.22273415  0.28579793  0.87891523    -0.18800
F741        F  0.20084499  0.11635072  0.76282601    -0.18900
F742        F  0.14155163  0.11634147  0.78292086    -0.22700
F743        F  0.18771635  0.09514358  0.81809025    -0.24300
C744        C  0.35388015  0.38811801  0.80227474    -0.11100
C745        C  0.34134106  0.40408963  0.83578476     0.11500
C746        C  0.30636494  0.39221698  0.84997591    -0.02900
C747        C  0.28555501  0.36405485  0.82997294    -0.05700
C748        C  0.29902875  0.34604006  0.79723442    -0.16400
C749        C  0.33429577  0.35841911  0.78317358     0.02500
C750        C  0.36700811  0.43192882  0.85511998     0.12400
C751        C  0.29116676  0.40837223  0.88624588     0.63100
H752        H  0.25836738  0.35547568  0.84021494     0.12500
C753        C  0.35314622  0.34013044  0.74952611     0.55200
H754        H  0.38017529  0.39870647  0.79149657     0.08300
C755        C  0.40277586  0.42039801  0.86703568    -0.05500
C756        C  0.42981648  0.44923530  0.87477750    -0.06300
C757        C  0.42177479  0.48875130  0.87130592    -0.15900
C758        C  0.38332917  0.49908539  0.87148404    -0.01500
C759        C  0.35718288  0.47114614  0.85918085    -0.09000
C760        C  0.41345669  0.37808981  0.86930765     0.65300
H761        H  0.45811459  0.44082578  0.88103390     0.10700
C762        C  0.36782002  0.53524867  0.89087766     0.63700
H763        H  0.32898268  0.48013125  0.85336544     0.08100
F764        F  0.39112120  0.34841035  0.74847337    -0.19400
F765        F  0.33756003  0.35417530  0.71856730    -0.15600
F766        F  0.34978046  0.30046856  0.74937393    -0.19100
F767        F  0.27949911  0.44612456  0.88285646    -0.22500
F768        F  0.31849200  0.40746214  0.91253860    -0.24000
F769        F  0.26082248  0.38709098  0.89817312    -0.18000
F770        F  0.34625239  0.55579814  0.86750407    -0.20400
F771        F  0.39551742  0.55895676  0.90554224    -0.21600
F772        F  0.34504187  0.52423292  0.91931777    -0.18800
F773        F  0.44293081  0.37388822  0.89294726    -0.18900
F774        F  0.42421934  0.36325629  0.83533363    -0.22700
F775        F  0.38356555  0.35675586  0.88205126    -0.24300
C776        C  0.88481430  0.15970810  0.04255991    -0.11100
C777        C  0.85715670  0.14391448  0.06502690     0.11500
C778        C  0.85033693  0.10340047  0.06248953    -0.02900
C779        C  0.87208704  0.08007386  0.03802625    -0.05700
C780        C  0.90065134  0.09555699  0.01624197    -0.16400
C781        C  0.90707185  0.13627434  0.01846294     0.02500
C782        C  0.83531913  0.17061598  0.09046897     0.12400
C783        C  0.82054686  0.08468214  0.08588003     0.63100
H784        H  0.86740775  0.04904589  0.03633918     0.12500
C785        C  0.93652111  0.15524885  0.99501302     0.55200
H786        H  0.88909647  0.19079238  0.04442004     0.08300
C787        C  0.84962479  0.18493302  0.12409032    -0.05500
C788        C  0.82703397  0.20945981  0.14681385    -0.06300
C789        C  0.79050926  0.22104649  0.13725771    -0.15900
C790        C  0.77552362  0.20380799  0.10415210    -0.01500
C791        C  0.79904870  0.18091847  0.08089913    -0.09000
C792        C  0.88889755  0.17454964  0.13582691     0.65300
H793        H  0.83817606  0.21864034  0.17277141     0.10700
C794        C  0.73540915  0.20705842  0.09077896     0.63700
H795        H  0.78837554  0.16959621  0.05506434     0.08100
F796        F  0.97189228  0.14471006  0.00572549    -0.19400
F797        F  0.93443480  0.19530377  0.99778780    -0.15600
F798        F  0.93144980  0.14378569  0.95895619    -0.19100
F799        F  0.78558878  0.09852212  0.07747597    -0.22500
F800        F  0.82746635  0.09302934  0.12226480    -0.24000
F801        F  0.81985412  0.04475577  0.08046136    -0.18000
F802        F  0.73523894  0.22898575  0.06017864    -0.20400
F803        F  0.71050442  0.22301026  0.11584971    -0.21600
F804        F  0.72198444  0.17036749  0.08129905    -0.18800
F805        F  0.89679153  0.18932722  0.17047592    -0.18900
F806        F  0.91491061  0.18954634  0.11210793    -0.22700
F807        F  0.89285402  0.13473361  0.13573154    -0.24300
C808        C  0.67538503  0.39873836  0.13520833    -0.11100
C809        C  0.64447458  0.38163415  0.11716306     0.11500
C810        C  0.64380030  0.34075057  0.11103674    -0.02900
C811        C  0.67366279  0.31875176  0.12389550    -0.05700
C812        C  0.70200352  0.33534283  0.14571024    -0.16400
C813        C  0.70375753  0.37616882  0.15045421     0.02500
C814        C  0.61209023  0.40688869  0.10777732     0.12400
C815        C  0.61105260  0.31992702  0.09259501     0.63100
H816        H  0.67429706  0.28782314  0.11820075     0.12500
C817        C  0.73586737  0.39568212  0.17075269     0.55200
H818        H  0.67621292  0.43002830  0.13866967     0.08300
C819        C  0.58823196  0.42351746  0.13511801    -0.05500
C820        C  0.55912460  0.44797408  0.12482803    -0.06300
C821        C  0.55042871  0.45419471  0.08807336    -0.15900
C822        C  0.56944048  0.43027792  0.06131548    -0.01500
C823        C  0.60274601  0.41145220  0.07115817    -0.09000
C824        C  0.59220059  0.41415974  0.17493680     0.65300
H825        H  0.54207520  0.46201582  0.14596015     0.10700
C826        C  0.55289326  0.41656181  0.02520644     0.63700
H827        H  0.61959462  0.39693527  0.05011710     0.08100
F828        F  0.73437056  0.38663314  0.20694741    -0.19400
F829        F  0.73457041  0.43562575  0.16898213    -0.15600
F830        F  0.76957522  0.38308835  0.15571919    -0.19100
F831        F  0.61005604  0.32842883  0.05630358    -0.22500
F832        F  0.57775378  0.33118066  0.10935134    -0.24000
F833        F  0.61379126  0.28006743  0.09441150    -0.18000
F834        F  0.57486003  0.42909334  0.99683379    -0.20400
F835        F  0.51633995  0.42823152  0.02114682    -0.21600
F836        F  0.55249179  0.37643187  0.02320140    -0.18800
F837        F  0.56324834  0.42963560  0.19618733    -0.18900
F838        F  0.62538512  0.42901431  0.18857030    -0.22700
F839        F  0.59165048  0.37440912  0.17827634    -0.24300
C840        C  0.86985935  0.38879782  0.34950582    -0.11100
C841        C  0.83827517  0.39783670  0.32911608     0.11500
C842        C  0.81686700  0.43051808  0.34026135    -0.02900
C843        C  0.82821635  0.45333239  0.37077673    -0.05700
C844        C  0.86134324  0.44661783  0.39049445    -0.16400
C845        C  0.88054981  0.41099875  0.38119920     0.02500
C846        C  0.82445711  0.36993561  0.29973558     0.12400
C847        C  0.78097308  0.44051635  0.32081884     0.63100
H848        H  0.80903231  0.47537695  0.38081873     0.12500
C849        C  0.90985129  0.39230936  0.40443408     0.55200
H850        H  0.88485629  0.36237225  0.34196278     0.08300
C851        C  0.83629072  0.37109122  0.26293881    -0.05500
C852        C  0.81715420  0.34818056  0.23612554    -0.06300
C853        C  0.78775141  0.32281736  0.24512551    -0.15900
C854        C  0.77882411  0.31901851  0.28261144    -0.01500
C855        C  0.79673434  0.34321636  0.30901313    -0.09000
C856        C  0.86960683  0.39568012  0.25243812     0.65300
H857        H  0.82528811  0.34963285  0.20777756     0.10700
C858        C  0.75245379  0.28793288  0.29521777     0.63700
H859        H  0.78896577  0.34177726  0.33746670     0.08100
F860        F  0.94470158  0.39591592  0.38818849    -0.19400
F861        F  0.90187894  0.35321450  0.40686604    -0.15600
F862        F  0.91102430  0.40746925  0.43960379    -0.19100
F863        F  0.75418622  0.41230022  0.32630702    -0.22500
F864        F  0.78783523  0.44279386  0.28391748    -0.24000
F865        F  0.76643629  0.47578104  0.33335307    -0.18000
F866        F  0.75107920  0.28634742  0.33275432    -0.20400
F867        F  0.76491542  0.25244553  0.28141732    -0.21600
F868        F  0.71669964  0.29505608  0.28349864    -0.18800
F869        F  0.87709853  0.39254059  0.21543949    -0.18900
F870        F  0.90096136  0.38358500  0.27049599    -0.22700
F871        F  0.86296188  0.43421786  0.26191820    -0.24300
C872        C  0.57622429  0.15329175  0.53643375    -0.11100
C873        C  0.58945971  0.12148001  0.55442088     0.11500
C874        C  0.57410079  0.08452508  0.54609233    -0.02900
C875        C  0.54569091  0.08088165  0.51971832    -0.05700
C876        C  0.53277785  0.11250706  0.50017043    -0.16400
C877        C  0.54802353  0.15024321  0.51008011     0.02500
C878        C  0.61467488  0.12974178  0.58584788     0.12400
C879        C  0.58738776  0.04907753  0.56535299     0.63100
H880        H  0.53198222  0.05361660  0.51662103     0.12500
C881        C  0.53603557  0.18969241  0.49670734     0.55200
H882        H  0.58719805  0.18171337  0.54444828     0.08300
C883        C  0.65298371  0.13968559  0.58149167    -0.05500
C884        C  0.67319188  0.15313956  0.61226619    -0.06300
C885        C  0.65587529  0.15860686  0.64647871    -0.15900
C886        C  0.61771766  0.14850057  0.65081235    -0.01500
C887        C  0.59786976  0.13375521  0.62042823    -0.09000
C888        C  0.67203210  0.13752646  0.54438312     0.65300
H889        H  0.70237203  0.16125665  0.60955827     0.10700
C890        C  0.59750989  0.15537198  0.68682730     0.63700
H891        H  0.56826553  0.12733901  0.62293430     0.08100
F892        F  0.56643847  0.20693151  0.48016885    -0.19400
F893        F  0.52510366  0.21305983  0.52642759    -0.15600
F894        F  0.50694157  0.18938910  0.47261262    -0.19100
F895        F  0.57906250  0.05292155  0.60208724    -0.22500
F896        F  0.62567339  0.04514478  0.56081356    -0.24000
F897        F  0.57062127  0.01535852  0.55173578    -0.18000
F898        F  0.59625050  0.19472908  0.69516666    -0.20400
F899        F  0.61617610  0.13676655  0.71376475    -0.21600
F900        F  0.56108910  0.14151034  0.68587679    -0.18800
F901        F  0.70981646  0.14633760  0.54661700    -0.18900
F902        F  0.65575426  0.16360798  0.52191838    -0.22700
F903        F  0.66852444  0.10056702  0.52887440    -0.24300
C904        C  0.35028766  0.21210747  0.66970850    -0.11100
C905        C  0.33620789  0.22139570  0.63580270     0.11500
C906        C  0.30328261  0.24363907  0.63397339    -0.02900
C907        C  0.28741752  0.25906237  0.66650324    -0.05700
C908        C  0.30105232  0.24951527  0.70062179    -0.16400
C909        C  0.33309059  0.22531869  0.70242552     0.02500
C910        C  0.35626800  0.20653169  0.60270939     0.12400
C911        C  0.28382138  0.24905045  0.59808426     0.63100
H912        H  0.26291383  0.27727451  0.66551316     0.12500
C913        C  0.35115101  0.21281662  0.73728049     0.55200
H914        H  0.37508635  0.19414228  0.67056713     0.08300
C915        C  0.38666902  0.22698078  0.58752210    -0.05500
C916        C  0.40545340  0.21030408  0.55695322    -0.06300
C917        C  0.39493723  0.17402951  0.54176700    -0.15900
C918        C  0.36488406  0.15335719  0.55734518    -0.01500
C919        C  0.34583810  0.17019386  0.58764783    -0.09000
C920        C  0.39978714  0.26560599  0.60424814     0.65300
H921        H  0.42916989  0.22491791  0.54501285     0.10700
C922        C  0.35416226  0.11302769  0.54301969     0.63700
H923        H  0.32296204  0.15488031  0.60030271     0.08100
F924        F  0.38864675  0.22305986  0.73683333    -0.19400
F925        F  0.34842672  0.17295846  0.73891440    -0.15600
F926        F  0.33537211  0.22933250  0.76860166    -0.19100
F927        F  0.27373134  0.21327575  0.58287316    -0.22500
F928        F  0.30728476  0.26748581  0.57418426    -0.24000
F929        F  0.25161491  0.27082843  0.60274494    -0.18000
F930        F  0.32621964  0.09685238  0.56396658    -0.20400
F931        F  0.38502797  0.08897253  0.54327663    -0.21600
F932        F  0.34113159  0.11460153  0.50792509    -0.18800
F933        F  0.42935327  0.28089102  0.58480954    -0.18900
F934        F  0.41152024  0.26076518  0.63944304    -0.22700
F935        F  0.37088886  0.29212670  0.60490871    -0.24300
C936        C  0.62198193  0.23794760  0.25525621    -0.11100
C937        C  0.63415274  0.21348661  0.28208437     0.11500
C938        C  0.67203713  0.20168581  0.28221548    -0.02900
C939        C  0.69644646  0.21468599  0.25504237    -0.05700
C940        C  0.68520518  0.24144348  0.22961137    -0.16400
C941        C  0.64685544  0.25235195  0.22897916     0.02500
C942        C  0.60617479  0.19855555  0.30833200     0.12400
C943        C  0.68685430  0.17619439  0.31145942     0.63100
H944        H  0.72498597  0.20436969  0.25381132     0.12500
C945        C  0.63135063  0.27612607  0.19909178     0.55200
H946        H  0.59255789  0.24533636  0.25493493     0.08300
C947        C  0.59387219  0.22061998  0.33950285    -0.05500
C948        C  0.56941487  0.20318569  0.36437158    -0.06300
C949        C  0.55686529  0.16490237  0.35871089    -0.15900
C950        C  0.56910759  0.14296312  0.32737082    -0.01500
C951        C  0.59266133  0.16072775  0.30216129    -0.09000
C952        C  0.60592750  0.26250664  0.34601385     0.65300
H953        H  0.55944346  0.21934611  0.38839511     0.10700
C954        C  0.55936210  0.10065357  0.31957143     0.63700
H955        H  0.60189860  0.14430552  0.27794391     0.08100
F956        F  0.64657357  0.31289230  0.20093150    -0.19400
F957        F  0.59280406  0.27987414  0.20153261    -0.15600
F958        F  0.63977015  0.25778552  0.16599602    -0.19100
F959        F  0.67000545  0.14011774  0.30889125    -0.22500
F960        F  0.67935998  0.19316860  0.34545681    -0.24000
F961        F  0.72519214  0.17101756  0.30835056    -0.18000
F962        F  0.53638865  0.09758213  0.28957850    -0.20400
F963        F  0.54169466  0.08370935  0.34842944    -0.21600
F964        F  0.59181383  0.07996403  0.31189282    -0.18800
F965        F  0.59312102  0.27765921  0.37928089    -0.18900
F966        F  0.59158515  0.28471272  0.31907983    -0.22700
F967        F  0.64454767  0.26535026  0.34547661    -0.24300
C968        C  0.11294197  0.87722652  0.73500938    -0.11100
C969        C  0.12606786  0.88589714  0.77013302     0.11500
C970        C  0.16279742  0.87502161  0.77904888    -0.02900
C971        C  0.18463308  0.85445803  0.75264143    -0.05700
C972        C  0.17079155  0.84290439  0.71787622    -0.16400
C973        C  0.13532504  0.85830285  0.70795590     0.02500
C974        C  0.10146964  0.90842537  0.79631325     0.12400
C975        C  0.17867450  0.88452704  0.81660389     0.63100
H976        H  0.21311633  0.84793497  0.75936802     0.12500
C977        C  0.11941706  0.85767280  0.66971111     0.55200
H978        H  0.08511985  0.88687513  0.72816426     0.08300
C979        C  0.09714951  0.94901439  0.79451353    -0.05500
C980        C  0.07384470  0.96849209  0.82030475    -0.06300
C981        C  0.05494348  0.94910580  0.84811029    -0.15900
C982        C  0.05948887  0.90830381  0.84989570    -0.01500
C983        C  0.08233332  0.88868762  0.82350351    -0.09000
C984        C  0.11740722  0.97184271  0.76571419     0.65300
H985        H  0.07074442  0.99958889  0.81917117     0.10700
C986        C  0.04012698  0.88521805  0.87889475     0.63700
H987        H  0.08595085  0.85759871  0.82411924     0.08100
F988        F  0.14453742  0.84604196  0.64280129    -0.19400
F989        F  0.10817865  0.89472729  0.66194691    -0.15600
F990        F  0.08850057  0.83345335  0.66805659    -0.19100
F991        F  0.15858002  0.86493346  0.84241293    -0.22500
F992        F  0.17641599  0.92389883  0.82476493    -0.24000
F993        F  0.21586308  0.87383077  0.81893343    -0.18000
F994        F  0.04465131  0.84567637  0.87267031    -0.20400
F995        F  0.00225794  0.89291687  0.87926172    -0.21600
F996        F  0.05476385  0.89504151  0.91265153    -0.18800
F997        F  0.11092090  0.01128349  0.77014390    -0.18900
F998        F  0.10529396  0.95994918  0.73148975    -0.22700
F999        F  0.15558386  0.96601279  0.76764985    -0.24300
C1000       C  0.33599454  0.73699486  0.73429739    -0.11100
C1001       C  0.33195228  0.69667125  0.73310098     0.11500
C1002       C  0.29978896  0.67929761  0.71712994    -0.02900
C1003       C  0.27289604  0.70335096  0.70195874    -0.05700
C1004       C  0.27646098  0.74385502  0.70400273    -0.16400
C1005       C  0.30885124  0.76118321  0.72008593     0.02500
C1006       C  0.35904906  0.67427924  0.75380989     0.12400
C1007       C  0.29326148  0.63578557  0.71740572     0.63100
H1008       H  0.24795542  0.69079133  0.68971684     0.12500
C1009       C  0.31685607  0.80448583  0.72357600     0.55200
H1010       H  0.36035658  0.74983384  0.74748962     0.08300
C1011       C  0.39338285  0.66043804  0.73881154    -0.05500
C1012       C  0.41664738  0.63836662  0.76062451    -0.06300
C1013       C  0.40737793  0.63212400  0.79707553    -0.15900
C1014       C  0.37513713  0.64990280  0.81296646    -0.01500
C1015       C  0.35091317  0.66967854  0.79065854    -0.09000
C1016       C  0.40570517  0.66988201  0.70056897     0.65300
H1017       H  0.44217255  0.62561345  0.74950509     0.10700
C1018       C  0.36561126  0.65050785  0.85326372     0.63700
H1019       H  0.32556936  0.68247684  0.80232939     0.08100
F1020       F  0.35147919  0.81193599  0.70809404    -0.19400
F1021       F  0.31783783  0.81587746  0.76005025    -0.15600
F1022       F  0.29094870  0.82703792  0.70686121    -0.19100
F1023       F  0.29222016  0.62389325  0.75281291    -0.22500
F1024       F  0.32179770  0.61650731  0.69870106    -0.24000
F1025       F  0.25973794  0.62511768  0.70123689    -0.18000
F1026       F  0.36214954  0.68859076  0.86608131    -0.20400
F1027       F  0.39249304  0.63331785  0.87384253    -0.21600
F1028       F  0.33177966  0.63181982  0.85835507    -0.18800
F1029       F  0.44017597  0.65376016  0.69152375    -0.18900
F1030       F  0.40869727  0.70962165  0.69807057    -0.22700
F1031       F  0.37992220  0.65590639  0.67553747    -0.24300
C1032       C  0.38268909  0.87679932  0.54737505    -0.11100
C1033       C  0.35629095  0.84770417  0.53956213     0.11500
C1034       C  0.36107508  0.82347936  0.50803593    -0.02900
C1035       C  0.39258509  0.82908702  0.48554574    -0.05700
C1036       C  0.41905758  0.85911401  0.49218800    -0.16400
C1037       C  0.41499184  0.88187843  0.52561518     0.02500
C1038       C  0.32632379  0.84019601  0.56697031     0.12400
C1039       C  0.33322099  0.79124803  0.49854894     0.63100
H1040       H  0.39739284  0.80818809  0.46349586     0.12500
C1041       C  0.44347025  0.91041159  0.54211038     0.55200
H1042       H  0.37902174  0.89451036  0.57221162     0.08300
C1043       C  0.33360414  0.81850919  0.59792977    -0.05500
C1044       C  0.30364093  0.80952891  0.62120499    -0.06300
C1045       C  0.26694291  0.82202844  0.61514258    -0.15900
C1046       C  0.25957512  0.84367136  0.58410918    -0.01500
C1047       C  0.28970026  0.85286606  0.56074861    -0.09000
C1048       C  0.37288877  0.80488062  0.60642590     0.65300
H1049       H  0.30875070  0.79241788  0.64454751     0.10700
C1050       C  0.22003292  0.85525852  0.57459019     0.63700
H1051       H  0.28481530  0.86937689  0.53688584     0.08100
F1052       F  0.45142569  0.89988697  0.57708088    -0.19400
F1053       F  0.42810389  0.94715917  0.54405148    -0.15600
F1054       F  0.47711312  0.91209031  0.52371812    -0.19100
F1055       F  0.29836690  0.80700147  0.49282305    -0.22500
F1056       F  0.33060018  0.76597567  0.52663774    -0.24000
F1057       F  0.34355641  0.77007727  0.46728090    -0.18000
F1058       F  0.20650468  0.88231779  0.60007589    -0.20400
F1059       F  0.19690053  0.82305514  0.57380280    -0.21600
F1060       F  0.21864262  0.87136636  0.54081062    -0.18800
F1061       F  0.37308661  0.78105554  0.63576174    -0.18900
F1062       F  0.39542364  0.83658095  0.61476722    -0.22700
F1063       F  0.38804802  0.78424410  0.57683233    -0.24300
C1064       C  0.17116818  0.32677846  0.65100048    -0.11100
C1065       C  0.17769129  0.36665067  0.64921052     0.11500
C1066       C  0.19668459  0.38669145  0.67789355    -0.02900
C1067       C  0.21065122  0.36538458  0.70661775    -0.05700
C1068       C  0.20451320  0.32528762  0.70840420    -0.16400
C1069       C  0.18383367  0.30553220  0.68031109     0.02500
C1070       C  0.16277259  0.38687172  0.61756289     0.12400
C1071       C  0.20143519  0.43045993  0.67839267     0.63100
H1072       H  0.22643448  0.37995620  0.72817091     0.12500
C1073       C  0.17464060  0.26244766  0.68072681     0.55200
H1074       H  0.15553224  0.31250926  0.62918834     0.08300
C1075       C  0.18371031  0.39038247  0.58491876    -0.05500
C1076       C  0.16829491  0.41134039  0.55677999    -0.06300
C1077       C  0.13230926  0.42724661  0.55978713    -0.15900
C1078       C  0.11036551  0.42141195  0.59131699    -0.01500
C1079       C  0.12623564  0.40161349  0.62004269    -0.09000
C1080       C  0.22120519  0.37046510  0.57910661     0.65300
H1081       H  0.18402895  0.41534901  0.53190255     0.10700
C1082       C  0.07005993  0.43492231  0.59395038     0.63700
H1083       H  0.11026505  0.39750723  0.64479227     0.08100
F1084       F  0.16032942  0.24867370  0.64780993    -0.19400
F1085       F  0.14794405  0.25610363  0.70726525    -0.15600
F1086       F  0.20619865  0.24103307  0.68742401    -0.19100
F1087       F  0.16662454  0.44786948  0.67928367    -0.22500
F1088       F  0.22063788  0.44136527  0.64764485    -0.24000
F1089       F  0.22107876  0.44420565  0.70852201    -0.18000
F1090       F  0.05182204  0.42059000  0.62396421    -0.20400
F1091       F  0.05091547  0.42215168  0.56319961    -0.21600
F1092       F  0.06881474  0.47490483  0.59691572    -0.18800
F1093       F  0.23753284  0.37903818  0.54608025    -0.18900
F1094       F  0.21584013  0.33088635  0.57934838    -0.22700
F1095       F  0.24578056  0.38164687  0.60635490    -0.24300
C1096       C  0.18869891  0.59899756  0.30765952    -0.11100
C1097       C  0.16588494  0.63171223  0.30526053     0.11500
C1098       C  0.13793904  0.63969592  0.33200121    -0.02900
C1099       C  0.13426797  0.61470270  0.36096190    -0.05700
C1100       C  0.15741843  0.58217796  0.36380159    -0.16400
C1101       C  0.18543003  0.57426650  0.33691630     0.02500
C1102       C  0.17222939  0.65732572  0.27449473     0.12400
C1103       C  0.11183093  0.67411838  0.32964350     0.63100
H1104       H  0.11263139  0.61987518  0.38137841     0.12500
C1105       C  0.21197404  0.54016293  0.33865901     0.55200
H1106       H  0.20937562  0.59307231  0.28639350     0.08300
C1107       C  0.20141725  0.68502536  0.27490204    -0.05500
C1108       C  0.20608519  0.70801188  0.24467953    -0.06300
C1109       C  0.18311027  0.70389031  0.21392908    -0.15900
C1110       C  0.15303637  0.67670608  0.21404883    -0.01500
C1111       C  0.14860024  0.65349353  0.24440197    -0.09000
C1112       C  0.22804420  0.68973268  0.30677557     0.65300
H1113       H  0.22876280  0.72887063  0.24446735     0.10700
C1114       C  0.12524686  0.67192054  0.18318184     0.63700
H1115       H  0.12634385  0.63214010  0.24510971     0.08100
F1116       F  0.24433627  0.54632931  0.31862688    -0.19400
F1117       F  0.19475737  0.50702263  0.32448391    -0.15600
F1118       F  0.22244521  0.53450318  0.37412742    -0.19100
F1119       F  0.08978442  0.66935650  0.29913403    -0.22500
F1120       F  0.13232949  0.70799277  0.32738944    -0.24000
F1121       F  0.08836258  0.67800093  0.35976254    -0.18000
F1122       F  0.10422235  0.63833529  0.18574330    -0.20400
F1123       F  0.14337579  0.66999704  0.14988451    -0.21600
F1124       F  0.10083936  0.70289529  0.18455059    -0.18800
F1125       F  0.25322934  0.71980788  0.30233370    -0.18900
F1126       F  0.24832365  0.65607543  0.31005920    -0.22700
F1127       F  0.20808364  0.69748383  0.33863049    -0.24300
C1128       C  0.13365548  0.67084900  0.61421418    -0.11100
C1129       C  0.14230941  0.67121005  0.57695406     0.11500
C1130       C  0.16608204  0.70064970  0.56397501    -0.02900
C1131       C  0.18187481  0.72767399  0.58920047    -0.05700
C1132       C  0.17408129  0.72677633  0.62663373    -0.16400
C1133       C  0.14993313  0.69745681  0.63957395     0.02500
C1134       C  0.13008524  0.63764992  0.55300693     0.12400
C1135       C  0.17446315  0.70369152  0.52362010     0.63100
H1136       H  0.20039439  0.75007192  0.57977092     0.12500
C1137       C  0.14165187  0.69239846  0.67968998     0.55200
H1138       H  0.11527658  0.64824326  0.62366488     0.08300
C1139       C  0.15111109  0.60317015  0.55078925    -0.05500
C1140       C  0.13997731  0.57331617  0.52624297    -0.06300
C1141       C  0.10750184  0.57502263  0.50457672    -0.15900
C1142       C  0.08867963  0.61163833  0.50437542    -0.01500
C1143       C  0.09898371  0.64117134  0.53039749    -0.09000
C1144       C  0.18566887  0.59795521  0.57399509     0.65300
H1145       H  0.15780901  0.54816775  0.52309551     0.10700
C1146       C  0.06148682  0.62353023  0.47533667     0.63700
H1147       H  0.08394730  0.66841059  0.53170475     0.08100
F1148       F  0.13709856  0.65351111  0.68651675    -0.19400
F1149       F  0.10893497  0.71166619  0.68930609    -0.15600
F1150       F  0.17038681  0.70627228  0.70154645    -0.19100
F1151       F  0.14158052  0.71021362  0.50542038    -0.22500
F1152       F  0.19051743  0.66979498  0.50965931    -0.24000
F1153       F  0.19884059  0.73392713  0.51695751    -0.18000
F1154       F  0.02512971  0.61911909  0.48763500    -0.20400
F1155       F  0.06660014  0.60298319  0.44274945    -0.21600
F1156       F  0.06675296  0.66219820  0.46792056    -0.18800
F1157       F  0.20262745  0.56240827  0.56685497    -0.18900
F1158       F  0.17574440  0.60012845  0.61042737    -0.22700
F1159       F  0.21176360  0.62652482  0.56731272    -0.24300
C1160       C  0.11921665  0.10465076  0.07020014    -0.11100
C1161       C  0.09985282  0.12931950  0.09506732     0.11500
C1162       C  0.06052422  0.13325376  0.09203438    -0.02900
C1163       C  0.04182844  0.11126737  0.06460702    -0.05700
C1164       C  0.06094340  0.08501977  0.04086541    -0.16400
C1165       C  0.10025071  0.08113549  0.04408728     0.02500
C1166       C  0.12134008  0.14863047  0.12535919     0.12400
C1167       C  0.03824080  0.15950613  0.11837967     0.63100
H1168       H  0.01169752  0.11329909  0.06231824     0.12500
C1169       C  0.12149478  0.04965625  0.02281702     0.55200
H1170       H  0.14926599  0.10226170  0.07296039     0.08300
C1171       C  0.13279539  0.12841453  0.15588857    -0.05500
C1172       C  0.15327918  0.14839487  0.18335199    -0.06300
C1173       C  0.16386274  0.18782562  0.18131732    -0.15900
C1174       C  0.14913465  0.20865007  0.15155496    -0.01500
C1175       C  0.12984854  0.18800354  0.12362312    -0.09000
C1176       C  0.12389966  0.08554434  0.15922857     0.65300
H1177       H  0.16039500  0.13256121  0.20673477     0.10700
C1178       C  0.15195045  0.25220748  0.14630934     0.63700
H1179       H  0.12053272  0.20315654  0.10013693     0.08100
F1180       F  0.10704347  0.01395220  0.03137926    -0.19400
F1181       F  0.15925428  0.04991383  0.03094196    -0.15600
F1182       F  0.11808730  0.05462441  0.98600911    -0.19100
F1183       F  0.04924401  0.19758804  0.11489896    -0.22500
F1184       F  0.04420614  0.14904429  0.15370895    -0.24000
F1185       F  0.00015145  0.15720236  0.11193605    -0.18000
F1186       F  0.11661251  0.26642934  0.13957420    -0.20400
F1187       F  0.17464769  0.25860908  0.11644420    -0.21600
F1188       F  0.16559384  0.27372040  0.17559520    -0.18800
F1189       F  0.13412937  0.07222286  0.19265656    -0.18900
F1190       F  0.14313693  0.06403502  0.13262148    -0.22700
F1191       F  0.08591272  0.07908313  0.15523235    -0.24300
C1192       C  0.35795307  0.35804861  0.12394215    -0.11100
C1193       C  0.35570452  0.35632419  0.16193109     0.11500
C1194       C  0.38029892  0.37923131  0.18400119    -0.02900
C1195       C  0.40548298  0.40446222  0.16700432    -0.05700
C1196       C  0.40653652  0.40713659  0.12911842    -0.16400
C1197       C  0.38272339  0.38365400  0.10714790     0.02500
C1198       C  0.32740568  0.32984501  0.17749083     0.12400
C1199       C  0.37957577  0.37737743  0.22517550     0.63100
H1200       H  0.42414294  0.42291044  0.18304004     0.12500
C1201       C  0.38352517  0.38628899  0.06615223     0.55200
H1202       H  0.33950609  0.33964763  0.10757285     0.08300
C1203       C  0.28891463  0.33955870  0.17994070    -0.05500
C1204       C  0.26347226  0.31215763  0.19326120    -0.06300
C1205       C  0.27537859  0.27573639  0.20400119    -0.15900
C1206       C  0.31383998  0.26609944  0.20149811    -0.01500
C1207       C  0.33924873  0.29336577  0.18798371    -0.09000
C1208       C  0.27475535  0.37839569  0.16794993     0.65300
H1209       H  0.23385080  0.31867117  0.19480498     0.10700
C1210       C  0.32786716  0.22701145  0.21243737     0.63700
H1211       H  0.36869448  0.28634827  0.18516964     0.08100
F1212       F  0.37367088  0.42325232  0.05690141    -0.19400
F1213       F  0.35884419  0.36035548  0.04944368    -0.15600
F1214       F  0.41918235  0.37818983  0.05299367    -0.19100
F1215       F  0.38869467  0.34045701  0.23511136    -0.22500
F1216       F  0.34425174  0.38658609  0.23853136    -0.24000
F1217       F  0.40490478  0.40301339  0.24135863    -0.18000
F1218       F  0.36589296  0.22265350  0.20589201    -0.20400
F1219       F  0.30934368  0.19792383  0.19289099    -0.21600
F1220       F  0.32146328  0.22313172  0.24914103    -0.18800
F1221       F  0.23693310  0.38315129  0.17538835    -0.18900
F1222       F  0.28018449  0.38107390  0.13089227    -0.22700
F1223       F  0.29385222  0.40826788  0.18587906    -0.24300
C1224       C  0.30391168  0.12247334  0.30161111    -0.11100
C1225       C  0.31831985  0.14486434  0.33075760     0.11500
C1226       C  0.30683727  0.18381863  0.33572335    -0.02900
C1227       C  0.27730215  0.19723204  0.31450375    -0.05700
C1228       C  0.26354379  0.17587027  0.28379581    -0.16400
C1229       C  0.27884121  0.13772658  0.27644468     0.02500
C1230       C  0.34814349  0.12793432  0.35334551     0.12400
C1231       C  0.32832934  0.21219480  0.36053385     0.63100
H1232       H  0.26615123  0.22565513  0.32120615     0.12500
C1233       C  0.27142041  0.11245752  0.24227339     0.55200
H1234       H  0.31398978  0.09300766  0.29778371     0.08300
C1235       C  0.34135905  0.11577417  0.38907866    -0.05500
C1236       C  0.37235268  0.10611840  0.41040724    -0.06300
C1237       C  0.40928772  0.10641064  0.39636704    -0.15900
C1238       C  0.41282410  0.10546056  0.35770181    -0.01500
C1239       C  0.38330971  0.12023467  0.33740573    -0.09000
C1240       C  0.30169896  0.11028262  0.40337365     0.65300
H1241       H  0.36784721  0.09795566  0.43813530     0.10700
C1242       C  0.44241911  0.08260623  0.33613545     0.63700
H1243       H  0.38697833  0.12339915  0.30838308     0.08100
F1244       F  0.23802000  0.09259594  0.24609734    -0.19400
F1245       F  0.29928311  0.08504056  0.23624826    -0.15600
F1246       F  0.27085273  0.13430444  0.21170072    -0.19100
F1247       F  0.36538347  0.21310776  0.34924000    -0.22500
F1248       F  0.32689774  0.20127843  0.39616293    -0.24000
F1249       F  0.31430320  0.24944745  0.35944948    -0.18000
F1250       F  0.42495478  0.05280569  0.31644656    -0.20400
F1251       F  0.46859542  0.06596921  0.35780486    -0.21600
F1252       F  0.46034746  0.10598690  0.31176788    -0.18800
F1253       F  0.30135988  0.09600399  0.43796672    -0.18900
F1254       F  0.28311968  0.08401087  0.38053352    -0.22700
F1255       F  0.28228280  0.14479940  0.40467781    -0.24300
C1256       C  0.14154868  0.30759221  0.33750935    -0.11100
C1257       C  0.15084435  0.34619344  0.33089791     0.11500
C1258       C  0.17669809  0.35409037  0.30252100    -0.02900
C1259       C  0.19089866  0.32292674  0.28056507    -0.05700
C1260       C  0.18078806  0.28444934  0.28660430    -0.16400
C1261       C  0.15623486  0.27640937  0.31591523     0.02500
C1262       C  0.13696283  0.37719542  0.35714149     0.12400
C1263       C  0.18981178  0.39514211  0.29584834     0.63100
H1264       H  0.21010706  0.32834833  0.25839379     0.12500
C1265       C  0.14682001  0.23504555  0.32528444     0.55200
H1266       H  0.12305306  0.30209934  0.36024877     0.08300
C1267       C  0.10114045  0.39427346  0.35542007    -0.05500
C1268       C  0.09147188  0.42460158  0.38087854    -0.06300
C1269       C  0.11613916  0.43812384  0.40839946    -0.15900
C1270       C  0.15272839  0.42043224  0.40931944    -0.01500
C1271       C  0.16118210  0.38953526  0.38461490    -0.09000
C1272       C  0.07352267  0.38075709  0.32646171     0.65300
H1273       H  0.06519903  0.43909098  0.37785976     0.10700
C1274       C  0.18608811  0.43218417  0.43331829     0.63700
H1275       H  0.18833484  0.37561080  0.38571587     0.08100
F1276       F  0.12624546  0.21711810  0.29777324    -0.19400
F1277       F  0.12597260  0.23368636  0.35715377    -0.15600
F1278       F  0.17951633  0.21455854  0.32985751    -0.19100
F1279       F  0.21035557  0.40933120  0.32513957    -0.22500
F1280       F  0.15937020  0.41896357  0.29126808    -0.24000
F1281       F  0.21230630  0.39662513  0.26503667    -0.18000
F1282       F  0.19562107  0.40116655  0.45392494    -0.20400
F1283       F  0.18120750  0.46379775  0.45677130    -0.21600
F1284       F  0.21628922  0.44062542  0.41106372    -0.18800
F1285       F  0.04005514  0.40080050  0.32945907    -0.18900
F1286       F  0.06574219  0.34180972  0.32978849    -0.22700
F1287       F  0.08858209  0.38625283  0.29229348    -0.24300
loop_ 
_geom_bond_atom_site_label_1 
_geom_bond_atom_site_label_2 
_geom_bond_distance 
_geom_bond_site_symmetry_2 
_ccdc_geom_bond_type 
C1            C2   1.542       .  S
C1            C7   1.529       .  S
C1            C5   1.558       .  S
C1         C1173   1.555       .  S
C2            H9   1.086       .  S
C2            C3   1.361       .  D
C3            C4   1.533       .  S
C3         C1205   1.486       .  S
C4            C8   1.548       .  S
C4            C6   1.558       .  S
C4           H10   1.107       .  S
C5           H11   1.066       .  S
C5            C6   1.375       .  D
C6         C1228   1.526       .  S
C7           H12   1.086       .  S
C7            C8   1.361       .  D
C8         C1260   1.489       .  S
C13          C15   1.525       .  S
C13          C17   1.532       .  S
C13          C16   1.568       .  S
C13        C1269   1.546       .  S
C14          C18   1.532       .  S
C14          C20   1.543       .  S
C14          C19   1.560       .  S
C14        C1141   1.555       .  S
C15          C23   1.380       .  A
C15          C18   1.387       .  A
C16          C27   1.393       .  A
C16          C19   1.431       .  A
C17          C31   1.380       .  A
C17          C20   1.384       .  A
C18          C21   1.382       .  A
C19          C25   1.385       .  A
C20          C28   1.381       .  A
C21          N22   1.354       .  A
C21          H34   1.083       .  S
N22          C23   1.351       .  A
N22        C1100   1.440       .  S
C23          H24   1.081       .  S
C25          N26   1.356       .  A
C25          H35   1.078       .  S
N26          C27   1.357       .  A
N26         N108   1.419   1_455  S
C27          H33   1.080       .  S
C28          N29   1.356       .  A
C28          H30   1.081       .  S
N29          C31   1.357       .  A
N29        C1077   1.437       .  S
C31          H32   1.082       .  S
C36          C37   1.551       .  S
C36          C42   1.544       .  S
C36          C40   1.546       .  S
C36         C972   1.552       .  S
C37          H44   1.083       .  S
C37          C38   1.362       .  D
C38          C39   1.532       .  S
C38        C1004   1.479       .  S
C39          C43   1.540       .  S
C39          C41   1.535       .  S
C39          H45   1.111       .  S
C40          H46   1.085       .  S
C40          C41   1.371       .  D
C41        C1045   1.493       .  S
C42          H47   1.084       .  S
C42          C43   1.367       .  D
C43        C1132   1.491       .  S
C48          C50   1.547       .  S
C48          C52   1.552       .  S
C48          C51   1.542       .  S
C48        C1237   1.551       .  S
C49          C53   1.533       .  S
C49          C55   1.533       .  S
C49          C54   1.560       .  S
C49         C876   1.553       .  S
C50          C58   1.386       .  A
C50          C53   1.392       .  A
C51          C62   1.380       .  A
C51          C54   1.411       .  A
C52          C66   1.385       .  A
C52          C55   1.396       .  A
C53          C56   1.375       .  A
C54          C60   1.388       .  A
C55          C63   1.378       .  A
C56          N57   1.353       .  A
C56          H69   1.082       .  S
N57          C58   1.357       .  A
N57         C917   1.435       .  S
C58          H59   1.081       .  S
C60          N61   1.354       .  A
C60          H70   1.077       .  S
N61          C62   1.351       .  A
N61         N155   1.405   1_545  S
C62          H68   1.082       .  S
C63          N64   1.353       .  A
C63          H65   1.082       .  S
N64          C66   1.358       .  A
N64         C949   1.437       .  S
C66          H67   1.078       .  S
C71          C72   1.557       .  S
C71          C77   1.540       .  S
C71          C75   1.539       .  S
C71         C789   1.561       .  S
C72          H79   1.082       .  S
C72          C73   1.370       .  D
C73          C74   1.554       .  S
C73         C853   1.514       .  S
C74          C78   1.553       .  S
C74          C76   1.550       .  S
C74          H80   1.107       .  S
C75          H81   1.086       .  S
C75          C76   1.367       .  D
C76         C940   1.503       .  S
C77          H82   1.086       .  S
C77          C78   1.366       .  D
C78         C812   1.499       .  S
C83          C84   1.538       .  S
C83          C89   1.538       .  S
C83          C87   1.552       .  S
C83         C725   1.553       .  S
C84          H91   1.083       .  S
C84          C85   1.362       .  D
C85          C86   1.536       .  S
C85        C1068   1.493       .  S
C86          C90   1.548       .  S
C86          C88   1.536       .  S
C86          H92   1.102       .  S
C87          H93   1.083       .  S
C87          C88   1.363       .  D
C88         C908   1.483       .  S
C89          H94   1.079       .  S
C89          C90   1.373       .  D
C90         C748   1.508       .  S
C95          C97   1.550       .  S
C95          C99   1.539       .  S
C95          C98   1.546       .  S
C95         C620   1.557       .  S
C96         C100   1.552       .  S
C96         C102   1.535       .  S
C96         C101   1.556       .  S
C96         C844   1.567       .  S
C97         C105   1.386       .  A
C97         C100   1.400       .  A
C98         C109   1.379       .  A
C98         C101   1.407       .  A
C99         C113   1.377       .  A
C99         C102   1.391       .  A
C100        C103   1.382       .  A
C101        C107   1.388       .  A
C102        C110   1.381       .  A
C103        N104   1.352       .  A
C103        H116   1.082       .  S
N104        C105   1.353       .  A
N104        C684   1.435       .  S
C105        H106   1.079       .  S
C107        N108   1.365       .  A
C107        H117   1.080       .  S
N108        C109   1.361       .  A
C109        H115   1.081       .  S
C110        N111   1.357       .  A
C110        H112   1.081       .  S
N111        C113   1.354       .  A
N111        C652   1.439       .  S
C113        H114   1.078       .  S
C118        C119   1.542       .  S
C118        C124   1.544       .  S
C118        C122   1.560       .  S
C118        C533   1.548       .  S
C119        H126   1.084       .  S
C119        C120   1.362       .  D
C120        C121   1.532       .  S
C120        C556   1.489       .  S
C121        C125   1.532       .  S
C121        C123   1.531       .  S
C121        H127   1.112       .  S
C122        H128   1.081       .  S
C122        C123   1.369       .  D
C123        C597   1.487       .  S
C124        H129   1.083       .  S
C124        C125   1.365       .  D
C125        C693   1.484       .  S
C130        C131   1.550       .  S
C130        C136   1.540       .  S
C130        C134   1.549       .  S
C130        C469   1.549       .  S
C131        H138   1.083       .  S
C131        C132   1.362       .  D
C132        C133   1.532       .  S
C132        C501   1.480       .  S
C133        C137   1.535       .  S
C133        C135   1.534       .  S
C133        H139   1.112       .  S
C134        H140   1.083       .  S
C134        C135   1.368       .  D
C135        C885   1.487       .  S
C136        H141   1.083       .  S
C136        C137   1.365       .  D
C137        C661   1.490       .  S
C142        C144   1.558       .  S
C142        C146   1.539       .  S
C142        C145   1.542       .  S
C142       C1036   1.550       .  S
C143        C147   1.537       .  S
C143        C149   1.526       .  S
C143        C148   1.556       .  S
C143        C588   1.542       .  S
C144        C152   1.390       .  A
C144        C147   1.408       .  A
C145        C156   1.380       .  A
C145        C148   1.405       .  A
C146        C160   1.386       .  A
C146        C149   1.383       .  A
C147        C150   1.380       .  A
C148        C154   1.385       .  A
C149        C157   1.377       .  A
C150        N151   1.349       .  A
C150        H163   1.082       .  S
N151        C152   1.354       .  A
N151        C437   1.439       .  S
C152        H153   1.082       .  S
C154        N155   1.354       .  A
C154        H164   1.080       .  S
N155        C156   1.354       .  A
C156        H162   1.081       .  S
C157        N158   1.355       .  A
C157        H159   1.083       .  S
N158        C160   1.359       .  A
N158        C396   1.438       .  S
C160        H161   1.082       .  S
C165        C166   1.542       .  S
C165        C171   1.558       .  S
C165        C169   1.549       .  S
C165        C332   1.554       .  S
C166        H173   1.082       .  S
C166        C167   1.367       .  D
C167        C168   1.538       .  S
C167       C1109   1.493       .  S
C168        C172   1.531       .  S
C168        C170   1.535       .  S
C168        H174   1.111       .  S
C169        H175   1.084       .  S
C169        C170   1.369       .  D
C170        C428   1.494       .  S
C171        H176   1.083       .  S
C171        C172   1.366       .  D
C172        C373   1.491       .  S
C177        C178   1.543       .  S
C177        C183   1.553       .  S
C177        C181   1.537       .  S
C177        C268   1.557       .  S
C178        H185   1.078       .  S
C178        C179   1.372       .  D
C179        C180   1.552       .  S
C179        C629   1.511       .  S
C180        C184   1.539       .  S
C180        C182   1.541       .  S
C180        H186   1.110       .  S
C181        H187   1.086       .  S
C181        C182   1.365       .  D
C182        C405   1.489       .  S
C183        H188   1.084       .  S
C183        C184   1.365       .  D
C184        C300   1.492       .  S
C189        C191   1.548       .  S
C189        C193   1.536       .  S
C189        C192   1.568       .  S
C189        C821   1.555       .  S
C190        C194   1.545       .  S
C190        C196   1.523       .  S
C190        C195   1.536       .  S
C190        C364   1.547       .  S
C191        C199   1.381       .  A
C191        C194   1.408       .  A
C192        C203   1.394       .  A
C192        C195   1.407       .  A
C193        C207   1.383       .  A
C193        C196   1.384       .  A
C194        C197   1.385       .  A
C195        C201   1.370       .  A
C196        C204   1.375       .  A
C197        N198   1.348       .  A
C197        H210   1.082       .  S
N198        C199   1.350       .  A
N198        C565   1.431       .  S
C199        H200   1.083       .  S
C201        N202   1.352   1_554  A
C201        H211   1.081       .  S
N202        C203   1.362   1_556  A
N202        N225   1.408       .  S
C203        H209   1.075   1_554  S
C204        N205   1.354       .  A
C204        H206   1.083       .  S
N205        C207   1.358       .  A
N205       C1196   1.434       .  S
C207        H208   1.082       .  S
C212        C214   1.547       .  S
C212        C216   1.537       .  S
C212        C215   1.563       .  S
C212        C309   1.557       .  S
C213        C217   1.539       .  S
C213        C219   1.537       .  S
C213        C218   1.530       .  S
C213        C757   1.543       .  S
C214        C222   1.377       .  A
C214        C217   1.394       .  A
C215        C226   1.396       .  A
C215        C218   1.406       .  A
C216        C230   1.379       .  A
C216        C219   1.395       .  A
C217        C220   1.379       .  A
C218        C224   1.368       .  A
C219        C227   1.378       .  A
C220        N221   1.354       .  A
C220        H233   1.081       .  S
N221        C222   1.353       .  A
N221        C492   1.433       .  S
C222        H223   1.080       .  S
C224        N225   1.351       .  A
C224        H234   1.082       .  S
N225        C226   1.362       .  A
C226        H232   1.077       .  S
C227        N228   1.354       .  A
C227        H229   1.079       .  S
N228        C230   1.353       .  A
N228       C1013   1.432       .  S
C230        H231   1.082       .  S
O235        C243   1.258       .  A
O235       Co255   1.889   1_454  S
O236        C244   1.259       .  A
O236       Co256   1.974       .  S
O237        C245   1.267       .  A
O237       Co257   2.009       .  S
O238        C246   1.284       .  A
O238       Co258   2.040   1_545  S
O239        C245   1.265       .  A
O239       Co256   1.989   1_455  S
O240        C246   1.272       .  A
O240       Co255   1.981       .  S
O241        C244   1.271       .  A
O241       Co258   2.023   1_545  S
O242        C243   1.299   1_556  A
O242       Co257   2.128       .  S
C243       C1164   1.486       .  S
C244        C460   1.506       .  S
C245        C716   1.494       .  S
C246        C780   1.500   1_556  S
O247        C260   1.254       .  A
O247       Co255   1.988   1_564  S
O248        C261   1.274   1_545  A
O248       Co256   2.014   1_455  S
O249        C262   1.264       .  A
O249       Co257   1.885   1_565  S
O250        C263   1.263       .  A
O250       Co258   1.959       .  S
O251        C263   1.280   1_545  A
O251       Co256   2.052       .  S
O252        C262   1.304       .  A
O252       Co255   2.125   1_465  S
O253        C260   1.254   1_556  A
O253       Co258   1.980       .  S
O254        C261   1.267       .  A
O254       Co257   1.987   1_565  S
Co255       O259   2.006       .  S
Co256       O259   2.040       .  S
Co257       O259   2.018   1_455  S
Co258       O259   2.040   1_565  S
C260        C524   1.482       .  S
C261        C981   1.499       .  S
C262        C341   1.503       .  S
C263        C277   1.504       .  S
C264        C265   1.397       .  A
C264        C269   1.412       .  A
C264        H274   1.085       .  S
C265        C266   1.413       .  A
C265        C270   1.494       .  S
C266        C271   1.521       .  S
C266        C267   1.411       .  A
C267        C268   1.416       .  A
C267        H272   1.079       .  S
C268        C269   1.437       .  A
C269        C273   1.521       .  S
C270        C275   1.411       .  A
C270        C279   1.404       .  A
C271        F287   1.383       .  S
C271        F288   1.382       .  S
C271        F289   1.384       .  S
C273        F284   1.383       .  S
C273        F285   1.385       .  S
C273        F286   1.377       .  S
C275        C280   1.520       .  S
C275        C276   1.407       .  A
C276        C277   1.411       .  A
C276        H281   1.080       .  S
C277        C278   1.425       .  A
C278        C282   1.518       .  S
C278        C279   1.416       .  A
C279        H283   1.083       .  S
C280        F293   1.385       .  S
C280        F294   1.383       .  S
C280        F295   1.381       .  S
C282        F290   1.385       .  S
C282        F291   1.384   1_565  S
C282        F292   1.382   1_565  S
C296        C297   1.404       .  A
C296        C301   1.411       .  A
C296        H306   1.083       .  S
C297        C298   1.418       .  A
C297        C302   1.495       .  S
C298        C303   1.519       .  S
C298        C299   1.412       .  A
C299        C300   1.404       .  A
C299        H304   1.083       .  S
C300        C301   1.415       .  A
C301        C305   1.515       .  S
C302        C307   1.412       .  A
C302        C311   1.405       .  A
C303        F319   1.382       .  S
C303        F320   1.382       .  S
C303        F321   1.384       .  S
C305        F316   1.382       .  S
C305        F317   1.385       .  S
C305        F318   1.383       .  S
C307        C312   1.523       .  S
C307        C308   1.404       .  A
C308        C309   1.417       .  A
C308        H313   1.081       .  S
C309        C310   1.428       .  A
C310        C314   1.516       .  S
C310        C311   1.417       .  A
C311        H315   1.084       .  S
C312        F325   1.385       .  S
C312        F326   1.381       .  S
C312        F327   1.382       .  S
C314        F322   1.382       .  S
C314        F323   1.379       .  S
C314        F324   1.385       .  S
C328        C329   1.393       .  A
C328        C333   1.404       .  A
C328        H338   1.085       .  S
C329        C330   1.413       .  A
C329        C334   1.493       .  S
C330        C335   1.519       .  S
C330        C331   1.413       .  A
C331        C332   1.418       .  A
C331        H336   1.077       .  S
C332        C333   1.435       .  A
C333        C337   1.517       .  S
C334        C339   1.417       .  A
C334        C343   1.399       .  A
C335        F351   1.382   1_554  S
C335        F352   1.383       .  S
C335        F353   1.385       .  S
C337        F348   1.385       .  S
C337        F349   1.382       .  S
C337        F350   1.372       .  S
C339        C344   1.520       .  S
C339        C340   1.409       .  A
C340        C341   1.409   1_554  A
C340        H345   1.083       .  S
C341        C342   1.432       .  A
C342        C346   1.524       .  S
C342        C343   1.411   1_556  A
C343        H347   1.083       .  S
C344        F357   1.385       .  S
C344        F358   1.382       .  S
C344        F359   1.383       .  S
C346        F354   1.385       .  S
C346        F355   1.382       .  S
C346        F356   1.382       .  S
C360        C361   1.399       .  A
C360        C365   1.411       .  A
C360        H370   1.085       .  S
C361        C362   1.410       .  A
C361        C366   1.485       .  S
C362        C367   1.522       .  S
C362        C363   1.403       .  A
C363        C364   1.414       .  A
C363        H368   1.078       .  S
C364        C365   1.436       .  A
C365        C369   1.525       .  S
C366        C371   1.414       .  A
C366        C375   1.398       .  A
C367        F383   1.382       .  S
C367        F384   1.381       .  S
C367        F385   1.385       .  S
C369        F380   1.383   1_554  S
C369        F381   1.384       .  S
C369        F382   1.376       .  S
C371        C376   1.517       .  S
C371        C372   1.410       .  A
C372        C373   1.405       .  A
C372        H377   1.083       .  S
C373        C374   1.419       .  A
C374        C378   1.513       .  S
C374        C375   1.405       .  A
C375        H379   1.083       .  S
C376        F389   1.384       .  S
C376        F390   1.383       .  S
C376        F391   1.382       .  S
C378        F386   1.381       .  S
C378        F387   1.378       .  S
C378        F388   1.385       .  S
C392        C393   1.404       .  A
C392        C397   1.410       .  A
C392        H402   1.083       .  S
C393        C394   1.420       .  A
C393        C398   1.492       .  S
C394        C399   1.519       .  S
C394        C395   1.410       .  A
C395        C396   1.400       .  A
C395        H400   1.083       .  S
C396        C397   1.412       .  A
C397        C401   1.514       .  S
C398        C403   1.418       .  A
C398        C407   1.402       .  A
C399        F415   1.382       .  S
C399        F416   1.382       .  S
C399        F417   1.385       .  S
C401        F412   1.383       .  S
C401        F413   1.384       .  S
C401        F414   1.383       .  S
C403        C408   1.518       .  S
C403        C404   1.412       .  A
C404        C405   1.404       .  A
C404        H409   1.082       .  S
C405        C406   1.419       .  A
C406        C410   1.517       .  S
C406        C407   1.407       .  A
C407        H411   1.084       .  S
C408        F421   1.385       .  S
C408        F422   1.382       .  S
C408        F423   1.382       .  S
C410        F418   1.385       .  S
C410        F419   1.381       .  S
C410        F420   1.382       .  S
C424        C425   1.398       .  A
C424        C429   1.405       .  A
C424        H434   1.083       .  S
C425        C426   1.417       .  A
C425        C430   1.485       .  S
C426        C431   1.517       .  S
C426        C427   1.408       .  A
C427        C428   1.405       .  A
C427        H432   1.085       .  S
C428        C429   1.422       .  A
C429        C433   1.514       .  S
C430        C435   1.416       .  A
C430        C439   1.401       .  A
C431        F447   1.382       .  S
C431        F448   1.382       .  S
C431        F449   1.384       .  S
C433        F444   1.385       .  S
C433        F445   1.381       .  S
C433        F446   1.377       .  S
C435        C440   1.517       .  S
C435        C436   1.410       .  A
C436        C437   1.404       .  A
C436        H441   1.083       .  S
C437        C438   1.416       .  A
C438        C442   1.516       .  S
C438        C439   1.405       .  A
C439        H443   1.084       .  S
C440        F453   1.384       .  S
C440        F454   1.382       .  S
C440        F455   1.383       .  S
C442        F450   1.381       .  S
C442        F451   1.383       .  S
C442        F452   1.385       .  S
C456        C457   1.395       .  A
C456        C461   1.406       .  A
C456        H466   1.083       .  S
C457        C458   1.412       .  A
C457        C462   1.487       .  S
C458        C463   1.518       .  S
C458        C459   1.411       .  A
C459        C460   1.412       .  A
C459        H464   1.082       .  S
C460        C461   1.429       .  A
C461        C465   1.514       .  S
C462        C467   1.409       .  A
C462        C471   1.399       .  A
C463        F479   1.382       .  S
C463        F480   1.382       .  S
C463        F481   1.384       .  S
C465        F476   1.385       .  S
C465        F477   1.382       .  S
C465        F478   1.382       .  S
C467        C472   1.522       .  S
C467        C468   1.406       .  A
C468        C469   1.419       .  A
C468        H473   1.077       .  S
C469        C470   1.433       .  A
C470        C474   1.523       .  S
C470        C471   1.410       .  A
C471        H475   1.085       .  S
C472        F485   1.385       .  S
C472        F486   1.382       .  S
C472        F487   1.382       .  S
C474        F482   1.379       .  S
C474        F483   1.382       .  S
C474        F484   1.385       .  S
C488        C489   1.398       .  A
C488        C493   1.401       .  A
C488        H498   1.084       .  S
C489        C490   1.413       .  A
C489        C494   1.472       .  S
C490        C495   1.520       .  S
C490        C491   1.405       .  A
C491        C492   1.403       .  A
C491        H496   1.083       .  S
C492        C493   1.419       .  A
C493        C497   1.520       .  S
C494        C499   1.410       .  A
C494        C503   1.398       .  A
C495        F511   1.383       .  S
C495        F512   1.381       .  S
C495        F513   1.384       .  S
C497        F508   1.380       .  S
C497        F509   1.385       .  S
C497        F510   1.384       .  S
C499        C504   1.521       .  S
C499        C500   1.401       .  A
C500        C501   1.406       .  A
C500        H505   1.082       .  S
C501        C502   1.423       .  A
C502        C506   1.520       .  S
C502        C503   1.402       .  A
C503        H507   1.085       .  S
C504        F517   1.384       .  S
C504        F518   1.383       .  S
C504        F519   1.381       .  S
C506        F514   1.383       .  S
C506        F515   1.377       .  S
C506        F516   1.384       .  S
C520        C521   1.401       .  A
C520        C525   1.406       .  A
C520        H530   1.083       .  S
C521        C522   1.414       .  A
C521        C526   1.483       .  S
C522        C527   1.519       .  S
C522        C523   1.406       .  A
C523        C524   1.406       .  A
C523        H528   1.083       .  S
C524        C525   1.422       .  A
C525        C529   1.520   1_554  S
C526        C531   1.410       .  A
C526        C535   1.391       .  A
C527        F543   1.382       .  S
C527        F544   1.382       .  S
C527        F545   1.385       .  S
C529        F540   1.385       .  S
C529        F541   1.383       .  S
C529        F542   1.383       .  S
C531        C536   1.522       .  S
C531        C532   1.410       .  A
C532        C533   1.418       .  A
C532        H537   1.074       .  S
C533        C534   1.441       .  A
C534        C538   1.526       .  S
C534        C535   1.404       .  A
C535        H539   1.086       .  S
C536        F549   1.384       .  S
C536        F550   1.382       .  S
C536        F551   1.382       .  S
C538        F546   1.385       .  S
C538        F547   1.368       .  S
C538        F548   1.383       .  S
C552        C553   1.399       .  A
C552        C557   1.405       .  A
C552        H562   1.083       .  S
C553        C554   1.414       .  A
C553        C558   1.483       .  S
C554        C559   1.519       .  S
C554        C555   1.407       .  A
C555        C556   1.406       .  A
C555        H560   1.082       .  S
C556        C557   1.422       .  A
C557        C561   1.518       .  S
C558        C563   1.418       .  A
C558        C567   1.403       .  A
C559        F575   1.382       .  S
C559        F576   1.383       .  S
C559        F577   1.385       .  S
C561        F572   1.380       .  S
C561        F573   1.385       .  S
C561        F574   1.379       .  S
C563        C568   1.519       .  S
C563        C564   1.407       .  A
C564        C565   1.400       .  A
C564        H569   1.083       .  S
C565        C566   1.410       .  A
C566        C570   1.515       .  S
C566        C567   1.404       .  A
C567        H571   1.083       .  S
C568        F581   1.385       .  S
C568        F582   1.382       .  S
C568        F583   1.382       .  S
C570        F578   1.382       .  S
C570        F579   1.384       .  S
C570        F580   1.384       .  S
C584        C585   1.396       .  A
C584        C589   1.403       .  A
C584        H594   1.086       .  S
C585        C586   1.410       .  A
C585        C590   1.485       .  S
C586        C591   1.519       .  S
C586        C587   1.409       .  A
C587        C588   1.412       .  A
C587        H592   1.075       .  S
C588        C589   1.435       .  A
C589        C593   1.527       .  S
C590        C595   1.416       .  A
C590        C599   1.404       .  A
C591        F607   1.382       .  S
C591        F608   1.382       .  S
C591        F609   1.385       .  S
C593        F604   1.385       .  S
C593        F605   1.383       .  S
C593        F606   1.376       .  S
C595        C600   1.522       .  S
C595        C596   1.402       .  A
C596        C597   1.403       .  A
C596        H601   1.080       .  S
C597        C598   1.418       .  A
C598        C602   1.518       .  S
C598        C599   1.411       .  A
C599        H603   1.083       .  S
C600        F613   1.385       .  S
C600        F614   1.381       .  S
C600        F615   1.381       .  S
C602        F610   1.385       .  S
C602        F611   1.382       .  S
C602        F612   1.381       .  S
C616        C617   1.402       .  A
C616        C621   1.410       .  A
C616        H626   1.084       .  S
C617        C618   1.416       .  A
C617        C622   1.496       .  S
C618        C623   1.519       .  S
C618        C619   1.414       .  A
C619        C620   1.409       .  A
C619        H624   1.079       .  S
C620        C621   1.428       .  A
C621        C625   1.520       .  S
C622        C627   1.417       .  A
C622        C631   1.400       .  A
C623        F639   1.383       .  S
C623        F640   1.381       .  S
C623        F641   1.384       .  S
C625        F636   1.383       .  S
C625        F637   1.383       .  S
C625        F638   1.380       .  S
C627        C632   1.521       .  S
C627        C628   1.413       .  A
C628        C629   1.411       .  A
C628        H633   1.081       .  S
C629        C630   1.428       .  A
C630        C634   1.518       .  S
C630        C631   1.410       .  A
C631        H635   1.085       .  S
C632        F645   1.385       .  S
C632        F646   1.383       .  S
C632        F647   1.380       .  S
C634        F642   1.385       .  S
C634        F643   1.381       .  S
C634        F644   1.383       .  S
C648        C649   1.401       .  A
C648        C653   1.406       .  A
C648        H658   1.083       .  S
C649        C650   1.416       .  A
C649        C654   1.485       .  S
C650        C655   1.518       .  S
C650        C651   1.408       .  A
C651        C652   1.403       .  A
C651        H656   1.083       .  S
C652        C653   1.419       .  A
C653        C657   1.518       .  S
C654        C659   1.414       .  A
C654        C663   1.401       .  A
C655        F671   1.382       .  S
C655        F672   1.381       .  S
C655        F673   1.385       .  S
C657        F668   1.381       .  S
C657        F669   1.385       .  S
C657        F670   1.383       .  S
C659        C664   1.519       .  S
C659        C660   1.407       .  A
C660        C661   1.405       .  A
C660        H665   1.082       .  S
C661        C662   1.424       .  A
C662        C666   1.522       .  S
C662        C663   1.409       .  A
C663        H667   1.083       .  S
C664        F677   1.384       .  S
C664        F678   1.382       .  S
C664        F679   1.382       .  S
C666        F674   1.381       .  S
C666        F675   1.382       .  S
C666        F676   1.385       .  S
C680        C681   1.403       .  A
C680        C685   1.406       .  A
C680        H690   1.083       .  S
C681        C682   1.418       .  A
C681        C686   1.485       .  S
C682        C687   1.519       .  S
C682        C683   1.406       .  A
C683        C684   1.401       .  A
C683        H688   1.083       .  S
C684        C685   1.412       .  A
C685        C689   1.516       .  S
C686        C691   1.415       .  A
C686        C695   1.404       .  A
C687        F703   1.382       .  S
C687        F704   1.383       .  S
C687        F705   1.385       .  S
C689        F700   1.384       .  S
C689        F701   1.385       .  S
C689        F702   1.381       .  S
C691        C696   1.521       .  S
C691        C692   1.400       .  A
C692        C693   1.401       .  A
C692        H697   1.080       .  S
C693        C694   1.420       .  A
C694        C698   1.520       .  S
C694        C695   1.411       .  A
C695        H699   1.083       .  S
C696        F709   1.385       .  S
C696        F710   1.382       .  S
C696        F711   1.383       .  S
C698        F706   1.385       .  S
C698        F707   1.381       .  S
C698        F708   1.381       .  S
C712        C713   1.397       .  A
C712        C717   1.404       .  A
C712        H722   1.083       .  S
C713        C714   1.414       .  A
C713        C718   1.486       .  S
C714        C719   1.518       .  S
C714        C715   1.411       .  A
C715        C716   1.408       .  A
C715        H720   1.080       .  S
C716        C717   1.422       .  A
C717        C721   1.512       .  S
C718        C723   1.408       .  A
C718        C727   1.397       .  A
C719        F735   1.382       .  S
C719        F736   1.382       .  S
C719        F737   1.384       .  S
C721        F732   1.384       .  S
C721        F733   1.385       .  S
C721        F734   1.378       .  S
C723        C728   1.523       .  S
C723        C724   1.403       .  A
C724        C725   1.418       .  A
C724        H729   1.074       .  S
C725        C726   1.440       .  A
C726        C730   1.527       .  S
C726        C727   1.413       .  A
C727        H731   1.083       .  S
C728        F741   1.385       .  S
C728        F742   1.382       .  S
C728        F743   1.382       .  S
C730        F738   1.385       .  S
C730        F739   1.380       .  S
C730        F740   1.382       .  S
C744        C745   1.399       .  A
C744        C749   1.407       .  A
C744        H754   1.084       .  S
C745        C746   1.415       .  A
C745        C750   1.490       .  S
C746        C751   1.520       .  S
C746        C747   1.409       .  A
C747        C748   1.413       .  A
C747        H752   1.083       .  S
C748        C749   1.427       .  A
C749        C753   1.518       .  S
C750        C755   1.419       .  A
C750        C759   1.402       .  A
C751        F767   1.381       .  S
C751        F768   1.383       .  S
C751        F769   1.385       .  S
C753        F764   1.386       .  S
C753        F765   1.380       .  S
C753        F766   1.374       .  S
C755        C760   1.517       .  S
C755        C756   1.407       .  A
C756        C757   1.407       .  A
C756        H761   1.083       .  S
C757        C758   1.420       .  A
C758        C762   1.515       .  S
C758        C759   1.405       .  A
C759        H763   1.081       .  S
C760        F773   1.385       .  S
C760        F774   1.382       .  S
C760        F775   1.384       .  S
C762        F770   1.381       .  S
C762        F771   1.381       .  S
C762        F772   1.384       .  S
C776        C777   1.405       .  A
C776        C781   1.415       .  A
C776        H786   1.083       .  S
C777        C778   1.418       .  A
C777        C782   1.500       .  S
C778        C783   1.521       .  S
C778        C779   1.411       .  A
C779        C780   1.408       .  A
C779        H784   1.083       .  S
C780        C781   1.423       .  A
C781        C785   1.517   1_554  S
C782        C787   1.413       .  A
C782        C791   1.397       .  A
C783        F799   1.381       .  S
C783        F800   1.382       .  S
C783        F801   1.385       .  S
C785        F796   1.382   1_556  S
C785        F797   1.385       .  S
C785        F798   1.382       .  S
C787        C792   1.521       .  S
C787        C788   1.414       .  A
C788        C789   1.418       .  A
C788        H793   1.074       .  S
C789        C790   1.440       .  A
C790        C794   1.526       .  S
C790        C791   1.412       .  A
C791        H795   1.085       .  S
C792        F805   1.385       .  S
C792        F806   1.382       .  S
C792        F807   1.382       .  S
C794        F802   1.383       .  S
C794        F803   1.374       .  S
C794        F804   1.385       .  S
C808        C809   1.409       .  A
C808        C813   1.416       .  A
C808        H818   1.083       .  S
C809        C810   1.420       .  A
C809        C814   1.503       .  S
C810        C815   1.521       .  S
C810        C811   1.409       .  A
C811        C812   1.404       .  A
C811        H816   1.080       .  S
C812        C813   1.414       .  A
C813        C817   1.516       .  S
C814        C819   1.416       .  A
C814        C823   1.407       .  A
C815        F831   1.380       .  S
C815        F832   1.383       .  S
C815        F833   1.385       .  S
C817        F828   1.381       .  S
C817        F829   1.384       .  S
C817        F830   1.383       .  S
C819        C824   1.522       .  S
C819        C820   1.407       .  A
C820        C821   1.416       .  A
C820        H825   1.082       .  S
C821        C822   1.426       .  A
C822        C826   1.517       .  S
C822        C823   1.416       .  A
C823        H827   1.083       .  S
C824        F837   1.385       .  S
C824        F838   1.381       .  S
C824        F839   1.383       .  S
C826        F834   1.382   1_554  S
C826        F835   1.379       .  S
C826        F836   1.384       .  S
C840        C841   1.405       .  A
C840        C845   1.423       .  A
C840        H850   1.084       .  S
C841        C842   1.410       .  A
C841        C846   1.503       .  S
C842        C847   1.523       .  S
C842        C843   1.406       .  A
C843        C844   1.420       .  A
C843        H848   1.077       .  S
C844        C845   1.437       .  A
C845        C849   1.521       .  S
C846        C851   1.416       .  A
C846        C855   1.400       .  A
C847        F863   1.382       .  S
C847        F864   1.383       .  S
C847        F865   1.385       .  S
C849        F860   1.382       .  S
C849        F861   1.385       .  S
C849        F862   1.376       .  S
C851        C856   1.515       .  S
C851        C852   1.418       .  A
C852        C853   1.410       .  A
C852        H857   1.083       .  S
C853        C854   1.424       .  A
C854        C858   1.510       .  S
C854        C855   1.411       .  A
C855        H859   1.083       .  S
C856        F869   1.384       .  S
C856        F870   1.383       .  S
C856        F871   1.382       .  S
C858        F866   1.385       .  S
C858        F867   1.380       .  S
C858        F868   1.379       .  S
C872        C873   1.393       .  A
C872        C877   1.406       .  A
C872        H882   1.086       .  S
C873        C874   1.410       .  A
C873        C878   1.491       .  S
C874        C879   1.520       .  S
C874        C875   1.413       .  A
C875        C876   1.414       .  A
C875        H880   1.062       .  S
C876        C877   1.444       .  A
C877        C881   1.532       .  S
C878        C883   1.418       .  A
C878        C887   1.403       .  A
C879        F895   1.382       .  S
C879        F896   1.382       .  S
C879        F897   1.385       .  S
C881        F892   1.384       .  S
C881        F893   1.385       .  S
C881        F894   1.373       .  S
C883        C888   1.518       .  S
C883        C884   1.411       .  A
C884        C885   1.402       .  A
C884        H889   1.083       .  S
C885        C886   1.415       .  A
C886        C890   1.512       .  S
C886        C887   1.406       .  A
C887        H891   1.083       .  S
C888        F901   1.385       .  S
C888        F902   1.382       .  S
C888        F903   1.381       .  S
C890        F898   1.381       .  S
C890        F899   1.382       .  S
C890        F900   1.385       .  S
C904        C905   1.400       .  A
C904        C909   1.405       .  A
C904        H914   1.085       .  S
C905        C906   1.411       .  A
C905        C910   1.480       .  S
C906        C911   1.518       .  S
C906        C907   1.404       .  A
C907        C908   1.404       .  A
C907        H912   1.081       .  S
C908        C909   1.423       .  A
C909        C913   1.521       .  S
C910        C915   1.416       .  A
C910        C919   1.401       .  A
C911        F927   1.383       .  S
C911        F928   1.381       .  S
C911        F929   1.382       .  S
C913        F924   1.384       .  S
C913        F925   1.383       .  S
C913        F926   1.380       .  S
C915        C920   1.519       .  S
C915        C916   1.407       .  A
C916        C917   1.401       .  A
C916        H921   1.083       .  S
C917        C918   1.416       .  A
C918        C922   1.517       .  S
C918        C919   1.406       .  A
C919        H923   1.083       .  S
C920        F933   1.384       .  S
C920        F934   1.382       .  S
C920        F935   1.382       .  S
C922        F930   1.385       .  S
C922        F931   1.383       .  S
C922        F932   1.381       .  S
C936        C937   1.400       .  A
C936        C941   1.411       .  A
C936        H946   1.083       .  S
C937        C938   1.415       .  A
C937        C942   1.488       .  S
C938        C943   1.519       .  S
C938        C939   1.406       .  A
C939        C940   1.405       .  A
C939        H944   1.081       .  S
C940        C941   1.423       .  A
C941        C945   1.511       .  S
C942        C947   1.417       .  A
C942        C951   1.401       .  A
C943        F959   1.381       .  S
C943        F960   1.383       .  S
C943        F961   1.384       .  S
C945        F956   1.378       .  S
C945        F957   1.385       .  S
C945        F958   1.379       .  S
C947        C952   1.517       .  S
C947        C948   1.410       .  A
C948        C949   1.402       .  A
C948        H953   1.083       .  S
C949        C950   1.419       .  A
C950        C954   1.517       .  S
C950        C951   1.404       .  A
C951        H955   1.085       .  S
C952        F965   1.384       .  S
C952        F966   1.382       .  S
C952        F967   1.382       .  S
C954        F962   1.383       .  S
C954        F963   1.379       .  S
C954        F964   1.384       .  S
C968        C969   1.400       .  A
C968        C973   1.410       .  A
C968        H978   1.085       .  S
C969        C970   1.412       .  A
C969        C974   1.493       .  S
C970        C975   1.522       .  S
C970        C971   1.409       .  A
C971        C972   1.417       .  A
C971        H976   1.077       .  S
C972        C973   1.433       .  A
C973        C977   1.523       .  S
C974        C979   1.415       .  A
C974        C983   1.404       .  A
C975        F991   1.382       .  S
C975        F992   1.382       .  S
C975        F993   1.385       .  S
C977        F988   1.377       .  S
C977        F989   1.385       .  S
C977        F990   1.383       .  S
C979        C984   1.522       .  S
C979        C980   1.407       .  A
C980        C981   1.411       .  A
C980        H985   1.082       .  S
C981        C982   1.423       .  A
C982        C986   1.518       .  S
C982        C983   1.414       .  A
C983        H987   1.083       .  S
C984        F997   1.385   1_565  S
C984        F998   1.381       .  S
C984        F999   1.382       .  S
C986        F994   1.385       .  S
C986        F995   1.379       .  S
C986        F996   1.381       .  S
C1000      C1001   1.398       .  A
C1000      C1005   1.402       .  A
C1000      H1010   1.085       .  S
C1001      C1002   1.416       .  A
C1001      C1006   1.479       .  S
C1002      C1007   1.520       .  S
C1002      C1003   1.407       .  A
C1003      C1004   1.403       .  A
C1003      H1008   1.083       .  S
C1004      C1005   1.423       .  A
C1005      C1009   1.521       .  S
C1006      C1011   1.416       .  A
C1006      C1015   1.399       .  A
C1007      F1023   1.382       .  S
C1007      F1024   1.381       .  S
C1007      F1025   1.384       .  S
C1009      F1020   1.384       .  S
C1009      F1021   1.383       .  S
C1009      F1022   1.378       .  S
C1011      C1016   1.518       .  S
C1011      C1012   1.409       .  A
C1012      C1013   1.403       .  A
C1012      H1017   1.083       .  S
C1013      C1014   1.416       .  A
C1014      C1018   1.517       .  S
C1014      C1015   1.399       .  A
C1015      H1019   1.085       .  S
C1016      F1029   1.385       .  S
C1016      F1030   1.383       .  S
C1016      F1031   1.381       .  S
C1018      F1026   1.384       .  S
C1018      F1027   1.380       .  S
C1018      F1028   1.382       .  S
C1032      C1033   1.398       .  A
C1032      C1037   1.412       .  A
C1032      H1042   1.085       .  S
C1033      C1034   1.410       .  A
C1033      C1038   1.492       .  S
C1034      C1039   1.522       .  S
C1034      C1035   1.407       .  A
C1035      C1036   1.416       .  A
C1035      H1040   1.076       .  S
C1036      C1037   1.438       .  A
C1037      C1041   1.526       .  S
C1038      C1043   1.416       .  A
C1038      C1047   1.405       .  A
C1039      F1055   1.382       .  S
C1039      F1056   1.383       .  S
C1039      F1057   1.384       .  S
C1041      F1052   1.384       .  S
C1041      F1053   1.383       .  S
C1041      F1054   1.375       .  S
C1043      C1048   1.522       .  S
C1043      C1044   1.405       .  A
C1044      C1045   1.405       .  A
C1044      H1049   1.080       .  S
C1045      C1046   1.418       .  A
C1046      C1050   1.518       .  S
C1046      C1047   1.413       .  A
C1047      H1051   1.083       .  S
C1048      F1061   1.385       .  S
C1048      F1062   1.382       .  S
C1048      F1063   1.382       .  S
C1050      F1058   1.380       .  S
C1050      F1059   1.382       .  S
C1050      F1060   1.384       .  S
C1064      C1065   1.400       .  A
C1064      C1069   1.409       .  A
C1064      H1074   1.083       .  S
C1065      C1066   1.415       .  A
C1065      C1070   1.487       .  S
C1066      C1071   1.519       .  S
C1066      C1067   1.410       .  A
C1067      C1068   1.405       .  A
C1067      H1072   1.083       .  S
C1068      C1069   1.426       .  A
C1069      C1073   1.523       .  S
C1070      C1075   1.417       .  A
C1070      C1079   1.403       .  A
C1071      F1087   1.383       .  S
C1071      F1088   1.382       .  S
C1071      F1089   1.384       .  S
C1073      F1084   1.385       .  S
C1073      F1085   1.381       .  S
C1073      F1086   1.380       .  S
C1075      C1080   1.517       .  S
C1075      C1076   1.406       .  A
C1076      C1077   1.401       .  A
C1076      H1081   1.082       .  S
C1077      C1078   1.414       .  A
C1078      C1082   1.516       .  S
C1078      C1079   1.408       .  A
C1079      H1083   1.083       .  S
C1080      F1093   1.385       .  S
C1080      F1094   1.380       .  S
C1080      F1095   1.381       .  S
C1082      F1090   1.384       .  S
C1082      F1091   1.384       .  S
C1082      F1092   1.381       .  S
C1096      C1097   1.402       .  A
C1096      C1101   1.406       .  A
C1096      H1106   1.084       .  S
C1097      C1098   1.414       .  A
C1097      C1102   1.481       .  S
C1098      C1103   1.519       .  S
C1098      C1099   1.404       .  A
C1099      C1100   1.405       .  A
C1099      H1104   1.082       .  S
C1100      C1101   1.418       .  A
C1101      C1105   1.518       .  S
C1102      C1107   1.412       .  A
C1102      C1111   1.401       .  A
C1103      F1119   1.382       .  S
C1103      F1120   1.382       .  S
C1103      F1121   1.384       .  S
C1105      F1116   1.385       .  S
C1105      F1117   1.382       .  S
C1105      F1118   1.383       .  S
C1107      C1112   1.521       .  S
C1107      C1108   1.401       .  A
C1108      C1109   1.407       .  A
C1108      H1113   1.082       .  S
C1109      C1110   1.424       .  A
C1110      C1114   1.520       .  S
C1110      C1111   1.409       .  A
C1111      H1115   1.083       .  S
C1112      F1125   1.385       .  S
C1112      F1126   1.382       .  S
C1112      F1127   1.382       .  S
C1114      F1122   1.385       .  S
C1114      F1123   1.379       .  S
C1114      F1124   1.381       .  S
C1128      C1129   1.403       .  A
C1128      C1133   1.410       .  A
C1128      H1138   1.084       .  S
C1129      C1130   1.417       .  A
C1129      C1134   1.493       .  S
C1130      C1135   1.519       .  S
C1130      C1131   1.409       .  A
C1131      C1132   1.404       .  A
C1131      H1136   1.081       .  S
C1132      C1133   1.421       .  A
C1133      C1137   1.519       .  S
C1134      C1139   1.409       .  A
C1134      C1143   1.404       .  A
C1135      F1151   1.382       .  S
C1135      F1152   1.382       .  S
C1135      F1153   1.385       .  S
C1137      F1148   1.385       .  S
C1137      F1149   1.382       .  S
C1137      F1150   1.382       .  S
C1139      C1144   1.524       .  S
C1139      C1140   1.401       .  A
C1140      C1141   1.417       .  A
C1140      H1145   1.080       .  S
C1141      C1142   1.434       .  A
C1142      C1146   1.522       .  S
C1142      C1143   1.419       .  A
C1143      H1147   1.084       .  S
C1144      F1157   1.385       .  S
C1144      F1158   1.382       .  S
C1144      F1159   1.382       .  S
C1146      F1154   1.380       .  S
C1146      F1155   1.378       .  S
C1146      F1156   1.386       .  S
C1160      C1161   1.402       .  A
C1160      C1165   1.409       .  A
C1160      H1170   1.083       .  S
C1161      C1162   1.418       .  A
C1161      C1166   1.493       .  S
C1162      C1167   1.520       .  S
C1162      C1163   1.409       .  A
C1163      C1164   1.406       .  A
C1163      H1168   1.083       .  S
C1164      C1165   1.418       .  A
C1165      C1169   1.514       .  S
C1166      C1171   1.412       .  A
C1166      C1175   1.396       .  A
C1167      F1183   1.382       .  S
C1167      F1184   1.383       .  S
C1167      F1185   1.385       .  S
C1169      F1180   1.382       .  S
C1169      F1181   1.384       .  S
C1169      F1182   1.379   1_554  S
C1171      C1176   1.522       .  S
C1171      C1172   1.409       .  A
C1172      C1173   1.416       .  A
C1172      H1177   1.072       .  S
C1173      C1174   1.440       .  A
C1174      C1178   1.527       .  S
C1174      C1175   1.410       .  A
C1175      H1179   1.085       .  S
C1176      F1189   1.384       .  S
C1176      F1190   1.382       .  S
C1176      F1191   1.383       .  S
C1178      F1186   1.385       .  S
C1178      F1187   1.383       .  S
C1178      F1188   1.375       .  S
C1192      C1193   1.403       .  A
C1192      C1197   1.405       .  A
C1192      H1202   1.083       .  S
C1193      C1194   1.419       .  A
C1193      C1198   1.486       .  S
C1194      C1199   1.519       .  S
C1194      C1195   1.410       .  A
C1195      C1196   1.401       .  A
C1195      H1200   1.082       .  S
C1196      C1197   1.410       .  A
C1197      C1201   1.515       .  S
C1198      C1203   1.417       .  A
C1198      C1207   1.401       .  A
C1199      F1215   1.382       .  S
C1199      F1216   1.382       .  S
C1199      F1217   1.385       .  S
C1201      F1212   1.382       .  S
C1201      F1213   1.384       .  S
C1201      F1214   1.383       .  S
C1203      C1208   1.519       .  S
C1203      C1204   1.408       .  A
C1204      C1205   1.403       .  A
C1204      H1209   1.083       .  S
C1205      C1206   1.416       .  A
C1206      C1210   1.513       .  S
C1206      C1207   1.407       .  A
C1207      H1211   1.083       .  S
C1208      F1221   1.384       .  S
C1208      F1222   1.382       .  S
C1208      F1223   1.382       .  S
C1210      F1218   1.384       .  S
C1210      F1219   1.381       .  S
C1210      F1220   1.379       .  S
C1224      C1225   1.397       .  A
C1224      C1229   1.414       .  A
C1224      H1234   1.084       .  S
C1225      C1226   1.412       .  A
C1225      C1230   1.494       .  S
C1226      C1231   1.522       .  S
C1226      C1227   1.410       .  A
C1227      C1228   1.415       .  A
C1227      H1232   1.078       .  S
C1228      C1229   1.442       .  A
C1229      C1233   1.525       .  S
C1230      C1235   1.415       .  A
C1230      C1239   1.402       .  A
C1231      F1247   1.383       .  S
C1231      F1248   1.380       .  S
C1231      F1249   1.384       .  S
C1233      F1244   1.383       .  S
C1233      F1245   1.386       .  S
C1233      F1246   1.381       .  S
C1235      C1240   1.520       .  S
C1235      C1236   1.413       .  A
C1236      C1237   1.412       .  A
C1236      H1241   1.080       .  S
C1237      C1238   1.426       .  A
C1238      C1242   1.518       .  S
C1238      C1239   1.408       .  A
C1239      H1243   1.084       .  S
C1240      F1253   1.384       .  S
C1240      F1254   1.383       .  S
C1240      F1255   1.380       .  S
C1242      F1250   1.384       .  S
C1242      F1251   1.378       .  S
C1242      F1252   1.382       .  S
C1256      C1257   1.403       .  A
C1256      C1261   1.410       .  A
C1256      H1266   1.083       .  S
C1257      C1258   1.421       .  A
C1257      C1262   1.493       .  S
C1258      C1263   1.520       .  S
C1258      C1259   1.410       .  A
C1259      C1260   1.401       .  A
C1259      H1264   1.082       .  S
C1260      C1261   1.418       .  A
C1261      C1265   1.519       .  S
C1262      C1267   1.414       .  A
C1262      C1271   1.390       .  A
C1263      F1279   1.382       .  S
C1263      F1280   1.382       .  S
C1263      F1281   1.385       .  S
C1265      F1276   1.381       .  S
C1265      F1277   1.385       .  S
C1265      F1278   1.383       .  S
C1267      C1272   1.518       .  S
C1267      C1268   1.416       .  A
C1268      C1269   1.413       .  A
C1268      H1273   1.074       .  S
C1269      C1270   1.446       .  A
C1270      C1274   1.534       .  S
C1270      C1271   1.404       .  A
C1271      H1275   1.086       .  S
C1272      F1285   1.385       .  S
C1272      F1286   1.382       .  S
C1272      F1287   1.382       .  S
C1274      F1282   1.384       .  S
C1274      F1283   1.373       .  S
C1274      F1284   1.385       .  S
