geometry optimzed in LAMMPS
_audit_creation_date              2020-12-01 
_audit_creation_method            'lammps2cif' 
_symmetry_space_group_name_H-M    'P1' 
_symmetry_Int_Tables_number       1 
_symmetry_cell_setting            triclinic 
loop_ 
_symmetry_equiv_pos_as_xyz 
  x,y,z 
_cell_length_a                    36.7295445 
_cell_length_b                    35.014729774845705 
_cell_length_c                    37.559634569676156 
_cell_angle_alpha                 93.18369198160592 
_cell_angle_beta                  89.4804231510239 
_cell_angle_gamma                 89.62214876510915 
loop_ 
_atom_site_label 
_atom_site_type_symbol 
_atom_site_fract_x 
_atom_site_fract_y 
_atom_site_fract_z 
_atom_site_charge 
C1          C  0.20188675  0.19944641  0.20465031     0.87200
C2          C  0.22598618  0.22966816  0.18820965    -0.53100
C3          C  0.24379661  0.25284696  0.21294615     0.10100
C4          C  0.23544071  0.24341843  0.25186334     0.21100
C5          C  0.22736556  0.17778120  0.22863083    -0.53800
C6          C  0.24506934  0.20037794  0.25352154     0.10200
C7          C  0.17619920  0.22193932  0.23055223    -0.53300
C8          C  0.19336956  0.24542789  0.25511068     0.10800
H9          H  0.22795782  0.23262511  0.15966595     0.15300
H10         H  0.24981255  0.26215181  0.27171380     0.01000
H11         H  0.23091341  0.14690851  0.22631159     0.15600
H12         H  0.14673564  0.21983940  0.22918773     0.15400
C13         C  0.10909610  0.47532896  0.42713597     0.30700
C14         C  0.10658639  0.52563438  0.48525679     0.30700
C15         C  0.13153714  0.51196773  0.42420582    -0.05500
C16         C  0.07104042  0.49140725  0.43750304    -0.06300
C17         C  0.12259323  0.45983264  0.46214632    -0.06200
C18         C  0.13082664  0.53776346  0.45417271    -0.05500
C19         C  0.06991663  0.51726813  0.46727390    -0.06300
C20         C  0.12076677  0.48533694  0.49166467    -0.06200
C21         C  0.13795229  0.57349335  0.44168283    -0.31500
N22         N  0.14245651  0.57030655  0.40589803     0.15000
C23         C  0.13812387  0.53317523  0.39499488    -0.31600
H24         H  0.13690966  0.52262599  0.36743996     0.16900
C25         C  0.03419484  0.52785213  0.47316716    -0.30500
N26         N  0.01352003  0.50922093  0.44792563     0.13700
C27         C  0.03574785  0.48698465  0.42595015    -0.30500
C28         C  0.13190977  0.46605290  0.52063300    -0.30800
N29         N  0.14050296  0.42950929  0.50950370     0.14200
H30         H  0.13383803  0.47780092  0.54776517     0.16800
C31         C  0.13544417  0.42553094  0.47373823    -0.30800
H32         H  0.14018704  0.39935369  0.45766087     0.16800
H33         H  0.02703770  0.46851285  0.40367539     0.16800
H34         H  0.13655035  0.60060409  0.45689504     0.16900
H35         H  0.02413153  0.54701390  0.49462169     0.16800
C36         C  0.19072963  0.80979140  0.69819034     0.87200
C37         C  0.21243314  0.78002731  0.71813022    -0.53100
C38         C  0.23026331  0.75345457  0.69607507     0.10100
C39         C  0.22417327  0.75909676  0.65626400     0.21100
C40         C  0.21868785  0.82710271  0.67318380    -0.53800
C41         C  0.23644635  0.80047646  0.65114663     0.10200
C42         C  0.16520971  0.78657288  0.67340953    -0.53300
C43         C  0.18240717  0.75961406  0.65170266     0.10800
H44         H  0.21331944  0.78021090  0.74700390     0.15300
H45         H  0.23890790  0.73780354  0.63842381     0.01000
H46         H  0.22428161  0.85748016  0.67386528     0.15600
H47         H  0.13586160  0.79070000  0.67351041     0.15400
C48         C  0.45843032  0.12795960  0.41803110     0.30700
C49         C  0.51405711  0.12435129  0.46550225     0.30700
C50         C  0.45573573  0.15638945  0.45084164    -0.05500
C51         C  0.46360813  0.08911669  0.43481049    -0.06300
C52         C  0.49659183  0.13555654  0.40340113    -0.06200
C53         C  0.48421003  0.15434085  0.47558620    -0.05500
C54         C  0.49219456  0.08747527  0.45919196    -0.06300
C55         C  0.52478861  0.13384469  0.42735240    -0.06200
C56         C  0.46949006  0.16633683  0.50848742    -0.31500
N57         N  0.43416029  0.17659858  0.50439112     0.15000
C58         C  0.42558904  0.17033879  0.46965719    -0.31600
H59         H  0.39820783  0.17220912  0.45955520     0.16900
C60         C  0.49526279  0.05029768  0.46871308    -0.30500
N61         N  0.46930092  0.02962347  0.45115212     0.13700
C62         C  0.45001899  0.05256482  0.43008795    -0.30500
C63         C  0.55668851  0.13986437  0.40867730    -0.30800
N64         N  0.54829656  0.14516858  0.37409923     0.14200
H65         H  0.58389843  0.13944377  0.41926688     0.16800
C66         C  0.51171556  0.14238475  0.37063735    -0.30800
H67         H  0.49741645  0.14467424  0.34580255     0.16800
H68         H  0.42907181  0.04296555  0.41165056     0.16800
H69         H  0.48285822  0.16502276  0.53388382     0.16900
H70         H  0.51576674  0.03868132  0.48567850     0.16800
C71         C  0.77713955  0.26284372  0.15636925     0.87200
C72         C  0.79947402  0.28973483  0.18167568    -0.53100
C73         C  0.77824841  0.31073031  0.20585440     0.10100
C74         C  0.73745486  0.30259393  0.20270810     0.21100
C75         C  0.75458324  0.23832150  0.18115229    -0.53800
C76         C  0.73405563  0.25931227  0.20573786     0.10200
C77         C  0.74894663  0.28902434  0.13956866    -0.53300
C78         C  0.72794204  0.30974711  0.16401612     0.10800
H79         H  0.82886196  0.29228777  0.18012429     0.15300
H80         H  0.72047477  0.31948369  0.22264009     0.01000
H81         H  0.75583125  0.20731371  0.17988077     0.15600
H82         H  0.74577615  0.29021258  0.11098596     0.15400
C83         C  0.22504142  0.23699263  0.78001839     0.87200
C84         C  0.19929046  0.25461305  0.75325565    -0.53100
C85         C  0.21655430  0.27363565  0.72739765     0.10100
C86         C  0.25824653  0.27352462  0.73098266     0.21100
C87         C  0.25205109  0.21189844  0.75718256    -0.53800
C88         C  0.26919701  0.23093368  0.73107780     0.10200
C89         C  0.24799200  0.27076277  0.79493301    -0.53300
C90         C  0.26556715  0.28987124  0.76905015     0.10800
H91         H  0.16983342  0.25239435  0.75483735     0.15300
H92         H  0.27285081  0.28985680  0.71097857     0.01000
H93         H  0.25681162  0.18177322  0.76107539     0.15600
H94         H  0.24986163  0.27858657  0.82319238     0.15400
C95         C  0.87906916  0.53636996  0.47408307     0.30700
C96         C  0.88085899  0.48265844  0.41855737     0.30700
C97         C  0.85962411  0.54738028  0.44006035    -0.05500
C98         C  0.91727131  0.52484437  0.45981135    -0.06300
C99         C  0.86241793  0.49748325  0.48140398    -0.06200
C100        C  0.86044956  0.52000320  0.41183487    -0.05500
C101        C  0.91810259  0.49739858  0.43135126    -0.06300
C102        C  0.86329938  0.47003369  0.45324618    -0.06200
C103        C  0.84360047  0.53580595  0.38346488    -0.31500
N104        N  0.83286421  0.57203453  0.39358159     0.15000
C105        C  0.84244414  0.57932795  0.42824149    -0.31600
H106        H  0.83776563  0.60588738  0.44373418     0.16900
C107        C  0.95408111  0.48934421  0.42338706    -0.30500
N108        N  0.97508458  0.51102647  0.44615951     0.13700
C109        C  0.95289154  0.53284404  0.46847624    -0.30500
C110        C  0.85263648  0.43590644  0.46668615    -0.30800
N111        N  0.84521390  0.44220609  0.50212592     0.14200
H112        H  0.85280593  0.40828274  0.45229559     0.16800
C113        C  0.85145186  0.47959836  0.51130449    -0.30800
H114        H  0.85005961  0.49233459  0.53821044     0.16800
H115        H  0.96178796  0.55233834  0.48990289     0.16800
H116        H  0.84033338  0.52237617  0.35701156     0.16900
H117        H  0.96405641  0.46848734  0.40328545     0.16800
C118        C  0.75751079  0.85212254  0.20323885     0.87200
C119        C  0.73225739  0.82651179  0.17996502    -0.53100
C120        C  0.71054642  0.80320518  0.19889219     0.10100
C121        C  0.71602908  0.80817440  0.23960196     0.21100
C122        C  0.73174002  0.87412075  0.22963685    -0.53800
C123        C  0.71011895  0.85130736  0.24902252     0.10200
C124        C  0.77864356  0.82464340  0.22618284    -0.53300
C125        C  0.75703135  0.80132940  0.24513553     0.10800
H126        H  0.73162549  0.82685279  0.15107045     0.15300
H127        H  0.69818440  0.78989445  0.25487971     0.01000
H128        H  0.73088095  0.90513950  0.23297148     0.15600
H129        H  0.80818303  0.82390047  0.22745051     0.15400
C130        C  0.75742211  0.18711561  0.70744850     0.87200
C131        C  0.73139458  0.21514232  0.72801851    -0.53100
C132        C  0.70618414  0.23143857  0.70688212     0.10100
C133        C  0.70963647  0.21838966  0.66732128     0.21100
C134        C  0.73244135  0.15790985  0.68765503    -0.53800
C135        C  0.70751754  0.17435193  0.66621869     0.10200
C136        C  0.77412434  0.21050696  0.67793641    -0.53300
C137        C  0.74901323  0.22722744  0.65700785     0.10800
H138        H  0.73274330  0.22088447  0.75665443     0.15300
H139        H  0.68920292  0.23247802  0.65076556     0.01000
H140        H  0.73462333  0.12721310  0.69001469     0.15600
H141        H  0.80327570  0.21324192  0.67412523     0.15400
C142        C  0.44457447  0.89383337  0.48457666     0.30700
C143        C  0.49538859  0.88805922  0.43140628     0.30700
C144        C  0.43363078  0.86883297  0.45129569    -0.05500
C145        C  0.45519575  0.93171805  0.46846473    -0.06300
C146        C  0.48179238  0.87712738  0.49468790    -0.06200
C147        C  0.46026316  0.86560012  0.42415399    -0.05500
C148        C  0.48123920  0.92865180  0.44108436    -0.06300
C149        C  0.50734053  0.87414100  0.46725403    -0.06200
C150        C  0.44208624  0.85992083  0.39249193    -0.31500
N151        N  0.40592558  0.85897710  0.39882601     0.15000
C152        C  0.40025269  0.86535495  0.43441256    -0.31600
H153        H  0.37403068  0.87199880  0.44671281     0.16900
C154        C  0.48810853  0.96498355  0.43069660    -0.30500
N155        N  0.46675233  0.98963853  0.45079697     0.13700
C156        C  0.44678561  0.97002518  0.47415400    -0.30500
C157        C  0.53809772  0.85755867  0.48006214    -0.30800
N158        N  0.53246271  0.85072494  0.51481817     0.14200
H159        H  0.56283501  0.85059583  0.46510698     0.16800
C160        C  0.49804510  0.86248557  0.52421863    -0.30800
H161        H  0.48546203  0.85971679  0.55010059     0.16800
H162        H  0.42853960  0.98286082  0.49427685     0.16800
H163        H  0.45410329  0.86131352  0.36615392     0.16900
H164        H  0.50778896  0.97313182  0.41093814     0.16800
C165        C  0.20941600  0.77642179  0.14468382     0.87200
C166        C  0.18052921  0.75201942  0.16269116    -0.53100
C167        C  0.19425801  0.73109833  0.18906975     0.10100
C168        C  0.23542869  0.73532443  0.19407301     0.21100
C169        C  0.22749171  0.80012099  0.17552658    -0.53800
C170        C  0.24089872  0.77824525  0.20159650     0.10200
C171        C  0.23888797  0.74761776  0.13113221    -0.53300
C172        C  0.25252119  0.72590930  0.15718927     0.10800
H173        H  0.15178915  0.75248551  0.15618627     0.15300
H174        H  0.24655734  0.71754318  0.21509624     0.01000
H175        H  0.22861142  0.83109959  0.17665648     0.15600
H176        H  0.24798267  0.74515830  0.10354820     0.15400
C177        C  0.77104766  0.75230826  0.74002696     0.87200
C178        C  0.79002348  0.72683618  0.71061830    -0.53100
C179        C  0.76631172  0.70757227  0.68820357     0.10100
C180        C  0.72600959  0.71574862  0.69758431     0.21100
C181        C  0.74537394  0.77864990  0.72020886    -0.53800
C182        C  0.72168518  0.75962493  0.69778413     0.10200
C183        C  0.74533808  0.72535017  0.75905442    -0.53300
C184        C  0.72137167  0.70650737  0.73681688     0.10800
H185        H  0.81940198  0.72469416  0.70809087     0.15300
H186        H  0.70691273  0.69938176  0.68004951     0.01000
H187        H  0.74548383  0.80961826  0.72415823     0.15600
H188        H  0.74578606  0.72231617  0.78762423     0.15400
C189        C  0.51879916  0.48298169  0.07130562     0.30700
C190        C  0.46185061  0.53341009  0.07400159     0.30700
C191        C  0.52407219  0.51964204  0.09492157    -0.05500
C192        C  0.50816774  0.49879982  0.03545132    -0.06300
C193        C  0.48250834  0.46758238  0.08492579    -0.06200
C194        C  0.49527057  0.54566794  0.09618319    -0.05500
C195        C  0.47888270  0.52449852  0.03689291    -0.06300
C196        C  0.45342591  0.49322111  0.08654833    -0.06200
C197        C  0.50784879  0.57900867  0.11317839    -0.31500
N198        N  0.54320611  0.57340292  0.12246461     0.15000
C199        C  0.55314130  0.53723445  0.11151817    -0.31600
H200        H  0.58032297  0.52543352  0.11351561     0.16900
C201        C  0.47258659  0.53474306  0.00260945    -0.30500
N202        N  0.49744937  0.51639713  0.98082692     0.13700
C203        C  0.51920043  0.49414394  0.00023028    -0.30500
C204        C  0.42342580  0.47361664  0.09825503    -0.30800
N205        N  0.43375547  0.43691442  0.10365043     0.14200
H206        H  0.39606946  0.48495565  0.10148161     0.16800
C207        C  0.46968165  0.43303266  0.09528173    -0.30800
H208        H  0.48524043  0.40673510  0.09624666     0.16800
H209        H  0.54045235  0.47528936  0.98932471     0.16800
H210        H  0.49283292  0.60560797  0.11711105     0.16900
H211        H  0.45114112  0.55323571  0.99384430     0.16800
C212        C  0.51370227  0.54866332  0.85155006     0.30700
C213        C  0.45984661  0.49556340  0.85202103     0.30700
C214        C  0.52058103  0.51204859  0.82795728    -0.05500
C215        C  0.50514410  0.53292443  0.88810802    -0.06300
C216        C  0.47619009  0.56197447  0.83937958    -0.06200
C217        C  0.49308744  0.48455395  0.82825174    -0.05500
C218        C  0.47738808  0.50583226  0.88824941    -0.06300
C219        C  0.44873619  0.53494861  0.83940293    -0.06200
C220        C  0.50953962  0.44971447  0.81903779    -0.31500
N221        N  0.54542897  0.45545666  0.81210701     0.15000
C222        C  0.55243005  0.49308083  0.81845306    -0.31600
H223        H  0.57946387  0.50530113  0.81931326     0.16900
C224        C  0.47252359  0.49597283  0.92291391    -0.30500
N225        N  0.49676845  0.51590895  0.94343861     0.17000
C226        C  0.51675383  0.53875824  0.92284458    -0.30500
C227        C  0.41760682  0.55221435  0.82742386    -0.30800
N228        N  0.42566843  0.58893380  0.82016071     0.14200
H229        H  0.39113355  0.53906632  0.82469318     0.16800
C230        C  0.46130515  0.59511732  0.82765952    -0.30800
H231        H  0.47537999  0.62184004  0.82462602     0.16800
H232        H  0.53720710  0.55870923  0.93262078     0.16800
H233        H  0.49695153  0.42203462  0.82090632     0.16900
H234        H  0.45247292  0.47658375  0.93277532     0.16800
O235        O  0.00613262  0.04099072  0.03756013    -0.79400
O236        O  0.94071253  0.06787950  0.90386418    -0.79500
O237        O  0.05558144  0.02050122  0.92020232    -0.79500
O238        O  0.90583644  0.03236715  0.98639586    -0.79400
O239        O  0.01666142  0.06543826  0.90902496    -0.79500
O240        O  0.95569708  0.06749504  0.99098428    -0.79500
O241        O  0.89778756  0.02602836  0.91494776    -0.79400
O242        O  0.03687174  0.04530199  0.98711726    -0.79500
C243        C  0.03229183  0.05504220  0.02061317     1.10200
C244        C  0.90753233  0.05806882  0.90386358     1.10100
C245        C  0.04919849  0.05333460  0.90937822     1.10300
C246        C  0.92163744  0.06409359  0.99483801     1.10100
O247        O  0.94723826  0.99661041  0.02452065    -0.79400
O248        O  0.01455964  0.98704805  0.87668038    -0.79500
O249        O  0.06654066  0.97442861  0.97456477    -0.79500
O250        O  0.92952547  0.95074283  0.91015376    -0.79400
O251        O  0.94177508  0.99230213  0.86957852    -0.79500
O252        O  0.01448898  0.97085514  0.00422746    -0.79500
O253        O  0.93579377  0.95289233  0.98313489    -0.79400
O254        O  0.01813040  0.95019524  0.92266100    -0.79500
Co255      Co  0.98532383  0.02104277  0.99448603     1.51500
Co256      Co  0.97832912  0.02808481  0.89335761     1.51700
Co257      Co  0.02377406  0.99572391  0.95536035     1.51600
Co258      Co  0.92064796  0.99064344  0.94866584     1.51500
O259        O  0.97252179  0.00917363  0.94340201    -1.41400
C260        C  0.93498902  0.96384386  0.01559286     1.10200
C261        C  0.02241302  0.95505231  0.88966730     1.10300
C262        C  0.04814512  0.96059517  0.99936134     1.10200
C263        C  0.93048470  0.95962583  0.87789827     1.10200
C264        C  0.84238142  0.82453413  0.78039831     0.19400
C265        C  0.85389813  0.86057903  0.77031696    -0.18700
C266        C  0.87308857  0.88516983  0.79404878    -0.11000
C267        C  0.88172631  0.87398325  0.82848576     0.21600
C268        C  0.87111346  0.83743668  0.83808536    -0.20300
C269        C  0.85189595  0.81292570  0.81439434    -0.11200
C270        C  0.89987699  0.89981313  0.85591342    -0.15300
C271        C  0.91608479  0.93316969  0.84923626    -0.29200
C272        C  0.82002288  0.80033648  0.75506592    -0.03400
C273        C  0.79657642  0.77362173  0.76558250    -0.40000
H274        H  0.84710362  0.87024088  0.74426508     0.12800
H275        H  0.88006611  0.91312832  0.78542342     0.12400
H276        H  0.87748040  0.82784186  0.86426496     0.11800
H277        H  0.84467149  0.78494038  0.82290661     0.12100
H278        H  0.89928731  0.89108822  0.88324095     0.14800
H279        H  0.91796591  0.94244020  0.82223509     0.13600
H280        H  0.82072969  0.80662665  0.72704878     0.11300
H281        H  0.79416055  0.76819713  0.79365434     0.13300
C282        C  0.58353758  0.61760502  0.81091588     0.19400
C283        C  0.58653930  0.63181764  0.77678520    -0.18700
C284        C  0.61675419  0.65307984  0.76723620    -0.11000
C285        C  0.64497899  0.66048670  0.79163210     0.21600
C286        C  0.64133165  0.64782072  0.82629599    -0.20300
C287        C  0.61106694  0.62632523  0.83586105    -0.11200
C288        C  0.67791333  0.68221855  0.78190676    -0.15300
C289        C  0.69105705  0.68195280  0.74825959    -0.29200
C290        C  0.55242250  0.59201924  0.81794618    -0.03400
C291        C  0.54371547  0.57793074  0.84959418    -0.40000
H292        H  0.56558791  0.62599179  0.75714291     0.12800
H293        H  0.61774870  0.66380170  0.74077906     0.12400
H294        H  0.66242187  0.65373564  0.84573941     0.11800
H295        H  0.61001160  0.61596800  0.86242179     0.12100
H296        H  0.69141148  0.69872404  0.80312505     0.14800
H297        H  0.67783831  0.66465037  0.72737836     0.13600
H298        H  0.53602405  0.58298252  0.79505786     0.11300
H299        H  0.55850388  0.58618769  0.87359157     0.13300
C300        C  0.15141865  0.85103804  0.09630235     0.19400
C301        C  0.11897591  0.87058961  0.10565618    -0.18700
C302        C  0.10192483  0.89383541  0.08170456    -0.11000
C303        C  0.11691509  0.89804005  0.04754475     0.21600
C304        C  0.14986118  0.87926982  0.03840917    -0.20300
C305        C  0.16696481  0.85591769  0.06242770    -0.11200
C306        C  0.09983969  0.92325068  0.02169282    -0.15300
C307        C  0.06421455  0.93264435  0.02271653    -0.29200
C308        C  0.16829642  0.82695566  0.12319820    -0.03400
C309        C  0.19426805  0.80031512  0.11585731    -0.40000
H310        H  0.10672566  0.86794801  0.13174561     0.12800
H311        H  0.07746861  0.90903697  0.09049513     0.12400
H312        H  0.16240482  0.88266234  0.01256096     0.11800
H313        H  0.19251772  0.84244386  0.05443447     0.12100
H314        H  0.11720616  0.93445731  0.00119258     0.14800
H315        H  0.04611653  0.92055426  0.04200945     0.13600
H316        H  0.15810175  0.83047859  0.15046920     0.11300
H317        H  0.20442775  0.79496794  0.08884495     0.13300
C318        C  0.32648701  0.65532729  0.11768320     0.19400
C319        C  0.33265138  0.63558019  0.08459413    -0.18700
C320        C  0.36051780  0.60819089  0.08032889    -0.11000
C321        C  0.38312721  0.60031171  0.10913321     0.21600
C322        C  0.37685356  0.61988796  0.14220163    -0.20300
C323        C  0.34918022  0.64734968  0.14642004    -0.11200
C324        C  0.41328961  0.57182405  0.10606845    -0.15300
C325        C  0.43032458  0.56133917  0.07521001    -0.29200
C326        C  0.29694480  0.68468842  0.12099658    -0.03400
C327        C  0.28148375  0.69618211  0.15247074    -0.40000
H328        H  0.31564384  0.64114977  0.06201646     0.12800
H329        H  0.36384132  0.59300384  0.05463464     0.12400
H330        H  0.39392783  0.61443681  0.16475719     0.11800
H331        H  0.34635645  0.66270681  0.17207569     0.12100
H332        H  0.42320336  0.56028284  0.13048048     0.14800
H333        H  0.42216810  0.57359985  0.05063610     0.13600
H334        H  0.28720544  0.69621790  0.09660701     0.11300
H335        H  0.28971332  0.68285959  0.17649835     0.13300
C336        C  0.64442979  0.78234560  0.63182843     0.19400
C337        C  0.63497590  0.76659938  0.59804631    -0.18700
C338        C  0.60720271  0.78276816  0.57855640    -0.11000
C339        C  0.58803668  0.81531745  0.59238208     0.21600
C340        C  0.59665766  0.83046210  0.62667266    -0.20300
C341        C  0.62465774  0.81428056  0.64622227    -0.11200
C342        C  0.55886046  0.83359748  0.57166858    -0.15300
C343        C  0.55918922  0.83202604  0.53576929    -0.29200
C344        C  0.67380095  0.76321709  0.65147880    -0.03400
C345        C  0.69306999  0.78015992  0.67823635    -0.40000
H346        H  0.64919834  0.74157493  0.58659415     0.12800
H347        H  0.60050583  0.76922320  0.55288750     0.12400
H348        H  0.58192327  0.85510835  0.63821417     0.11800
H349        H  0.63025367  0.82647750  0.67268094     0.12100
H350        H  0.53807093  0.85047792  0.58614483     0.14800
H351        H  0.58186567  0.81804939  0.52146613     0.13600
H352        H  0.68069700  0.73425858  0.64207491     0.11300
H353        H  0.68837357  0.81013642  0.68585915     0.13300
C354        C  0.27855144  0.83927254  0.28142355     0.19400
C355        C  0.30493842  0.86792985  0.28353329    -0.18700
C356        C  0.32520566  0.87413023  0.31459233    -0.11000
C357        C  0.31916631  0.85190688  0.34420193     0.21600
C358        C  0.29054586  0.82560449  0.34315300    -0.20300
C359        C  0.27052123  0.81911553  0.31191816    -0.11200
C360        C  0.34392673  0.85404282  0.37527067    -0.15300
C361        C  0.37985264  0.85899653  0.37051032    -0.29200
C362        C  0.26137450  0.82909052  0.24667530    -0.03400
C363        C  0.25719704  0.79222160  0.23579641    -0.40000
H364        H  0.31110377  0.88421167  0.26056870     0.12800
H365        H  0.34622058  0.89568096  0.31509356     0.12400
H366        H  0.28493393  0.80870079  0.36582637     0.11800
H367        H  0.24942940  0.79760519  0.31126220     0.12100
H368        H  0.33322162  0.84814128  0.40142533     0.14800
H369        H  0.39039377  0.86131948  0.34358929     0.13600
H370        H  0.25480612  0.85174574  0.22919951     0.11300
H371        H  0.26621600  0.77032590  0.25319188     0.13300
C372        C  0.80678065  0.13928176  0.78538162     0.19400
C373        C  0.79639609  0.13285329  0.82062440    -0.18700
C374        C  0.82220443  0.12231850  0.84558345    -0.11000
C375        C  0.85909288  0.11751967  0.83566711     0.21600
C376        C  0.86948800  0.12414618  0.80052638    -0.20300
C377        C  0.84371696  0.13449519  0.77557000    -0.11200
C378        C  0.88726860  0.10376150  0.86031932    -0.15300
C379        C  0.87941574  0.08138123  0.88728550    -0.29200
C380        C  0.77849417  0.15137347  0.75993079    -0.03400
C381        C  0.78634604  0.17031300  0.73060200    -0.40000
H382        H  0.76821659  0.13642727  0.82900929     0.12800
H383        H  0.81312705  0.11825432  0.87259058     0.12400
H384        H  0.89761847  0.12029481  0.79203465     0.11800
H385        H  0.85295957  0.13795212  0.74854257     0.12100
H386        H  0.91565921  0.10759609  0.85299808     0.14800
H387        H  0.85132019  0.07447783  0.89310319     0.13600
H388        H  0.75005813  0.14720240  0.76686802     0.11300
H389        H  0.81445922  0.17640852  0.72417738     0.13300
C390        C  0.59478917  0.36204952  0.78326986     0.19400
C391        C  0.58622531  0.33115968  0.75952803    -0.18700
C392        C  0.61263016  0.30378548  0.74904962    -0.11000
C393        C  0.64833128  0.30669945  0.76221362     0.21600
C394        C  0.65658052  0.33681760  0.78694781    -0.20300
C395        C  0.63017413  0.36427460  0.79737257    -0.11200
C396        C  0.67727756  0.27848419  0.75121106    -0.15300
C397        C  0.67721993  0.25885681  0.71938269    -0.29200
C398        C  0.56598385  0.39087671  0.79312697    -0.03400
C399        C  0.57342207  0.42717017  0.80416688    -0.40000
H400        H  0.55903596  0.32835932  0.74878871     0.12800
H401        H  0.60476408  0.28016821  0.73102919     0.12400
H402        H  0.68366403  0.33931431  0.79800101     0.11800
H403        H  0.63752219  0.38680223  0.81678995     0.12100
H404        H  0.70015991  0.27557948  0.76896896     0.14800
H405        H  0.65593052  0.26428007  0.70044683     0.13600
H406        H  0.53784711  0.38250263  0.78912403     0.11300
H407        H  0.60153156  0.43649874  0.80549999     0.13300
C408        C  0.88022537  0.93078854  0.09611436     0.19400
C409        C  0.85195439  0.94919278  0.11588435    -0.18700
C410        C  0.82795860  0.92832485  0.13639492    -0.11000
C411        C  0.83216192  0.88840880  0.13815276     0.21600
C412        C  0.86112819  0.87025809  0.11905418    -0.20300
C413        C  0.88491515  0.89110811  0.09832649    -0.11200
C414        C  0.80686593  0.86436040  0.15870458    -0.15300
C415        C  0.78172640  0.87817985  0.18254735    -0.29200
C416        C  0.90361709  0.95367555  0.07284214    -0.03400
C417        C  0.91767342  0.93936866  0.04162405    -0.40000
H418        H  0.84775739  0.97974945  0.11463289     0.12800
H419        H  0.80590925  0.94371677  0.15006407     0.12400
H420        H  0.86530390  0.83968160  0.12002447     0.11800
H421        H  0.90697489  0.87609975  0.08415329     0.12100
H422        H  0.80950948  0.83348254  0.15460342     0.14800
H423        H  0.77882648  0.90872162  0.18819113     0.13600
H424        H  0.90602063  0.98414705  0.07963548     0.11300
H425        H  0.91274695  0.90975345  0.03298720     0.13300
C426        C  0.64288891  0.71937917  0.18117169     0.19400
C427        C  0.63992234  0.68310162  0.19501867    -0.18700
C428        C  0.61426527  0.65682801  0.18173426    -0.11000
C429        C  0.59072079  0.66621272  0.15414323     0.21600
C430        C  0.59299944  0.70287068  0.14084390    -0.20300
C431        C  0.61889742  0.72918781  0.15405893    -0.11200
C432        C  0.56332425  0.63861912  0.13914176    -0.15300
C433        C  0.56811549  0.60041407  0.13913086    -0.29200
C434        C  0.67001868  0.74645874  0.19729828    -0.03400
C435        C  0.68371477  0.77676495  0.18119770    -0.40000
H436        H  0.65755604  0.67501660  0.21634975     0.12800
H437        H  0.61259010  0.62947937  0.19368056     0.12400
H438        H  0.57484500  0.71107218  0.11997874     0.11800
H439        H  0.61952286  0.75728305  0.14346133     0.12100
H440        H  0.53992584  0.65004479  0.12576075     0.14800
H441        H  0.59309607  0.58903998  0.14968783     0.13600
H442        H  0.68028582  0.73972248  0.22316136     0.11300
H443        H  0.67615996  0.78182612  0.15399476     0.13300
C444        C  0.63990680  0.86188365  0.32691129     0.19400
C445        C  0.61592190  0.83553924  0.34101594    -0.18700
C446        C  0.58887658  0.84760787  0.36542796    -0.11000
C447        C  0.58522985  0.88644625  0.37658007     0.21600
C448        C  0.60998789  0.91280167  0.36358827    -0.20300
C449        C  0.63697603  0.90072458  0.33866697    -0.11200
C450        C  0.55641673  0.89904441  0.40269886    -0.15300
C451        C  0.52348255  0.88254540  0.40191422    -0.29200
C452        C  0.66804612  0.84699119  0.30099375    -0.03400
C453        C  0.68368339  0.86785225  0.27607375    -0.40000
H454        H  0.61795891  0.80541770  0.33292186     0.12800
H455        H  0.57112913  0.82631428  0.37599739     0.12400
H456        H  0.60815595  0.94271658  0.37240364     0.11800
H457        H  0.65576318  0.92167312  0.32923680     0.12100
H458        H  0.56256767  0.92102257  0.42329156     0.14800
H459        H  0.51730521  0.86217919  0.37996869     0.13600
H460        H  0.67495822  0.81699318  0.30212714     0.11300
H461        H  0.67688103  0.89796727  0.27504080     0.13300
C462        C  0.83689976  0.60299795  0.55029952     0.19400
C463        C  0.80269143  0.62090882  0.55407266    -0.18700
C464        C  0.79403427  0.64432544  0.58433723    -0.11000
C465        C  0.81926316  0.64990107  0.61211160     0.21600
C466        C  0.85375096  0.63241107  0.60812839    -0.20300
C467        C  0.86250684  0.60904724  0.57763007    -0.11200
C468        C  0.81077692  0.67459413  0.64489272    -0.15300
C469        C  0.77645696  0.68164320  0.65678577    -0.29200
C470        C  0.84348526  0.57648353  0.51855847    -0.03400
C471        C  0.87646032  0.56553352  0.50539548    -0.40000
H472        H  0.78248868  0.61682800  0.53337643     0.12800
H473        H  0.76769084  0.65831573  0.58550222     0.12400
H474        H  0.87381069  0.63636468  0.62896931     0.11800
H475        H  0.88887708  0.59511111  0.57601468     0.12100
H476        H  0.83357550  0.68664583  0.65969526     0.14800
H477        H  0.75393103  0.66794480  0.64282791     0.13600
H478        H  0.81950831  0.56526038  0.50490551     0.11300
H479        H  0.90121035  0.57695259  0.51720807     0.13300
C480        C  0.79828128  0.29680801  0.59588045     0.19400
C481        C  0.82668191  0.32288682  0.60200359    -0.18700
C482        C  0.83529265  0.34957055  0.57700810    -0.11000
C483        C  0.81570318  0.35072534  0.54508063     0.21600
C484        C  0.78818825  0.32373409  0.53824192    -0.20300
C485        C  0.77937479  0.29710952  0.56342447    -0.11200
C486        C  0.82405532  0.37922193  0.51828752    -0.15300
C487        C  0.83673252  0.41431504  0.52767698    -0.29200
C488        C  0.79000031  0.26951829  0.62379566    -0.03400
C489        C  0.75766058  0.25212426  0.62726903    -0.40000
H490        H  0.84213245  0.32285308  0.62643096     0.12800
H491        H  0.85761767  0.36892548  0.58261120     0.12400
H492        H  0.77318846  0.32355745  0.51354369     0.11800
H493        H  0.75814979  0.27665316  0.55711704     0.12100
H494        H  0.81801771  0.37179350  0.49055158     0.14800
H495        H  0.83965462  0.42281938  0.55573662     0.13600
H496        H  0.81076661  0.26575646  0.64367832     0.11300
H497        H  0.73567005  0.25808122  0.60928479     0.13300
C498        C  0.76941765  0.71677301  0.30652455     0.19400
C499        C  0.75602403  0.67927312  0.30577304    -0.18700
C500        C  0.77008247  0.65259442  0.32853144    -0.11000
C501        C  0.79763395  0.66309865  0.35289060     0.21600
C502        C  0.81003695  0.70099308  0.35452694    -0.20300
C503        C  0.79627352  0.72753354  0.33151263    -0.11200
C504        C  0.81350862  0.63577364  0.37754753    -0.15300
C505        C  0.81526739  0.59767571  0.37023094    -0.29200
C506        C  0.75385284  0.74423806  0.28186233    -0.03400
C507        C  0.77269001  0.77380610  0.26971538    -0.40000
H508        H  0.73480747  0.67049746  0.28726997     0.12800
H509        H  0.75891236  0.62403453  0.32732390     0.12400
H510        H  0.83074697  0.71001873  0.37348811     0.11800
H511        H  0.80629985  0.75655121  0.33376785     0.12100
H512        H  0.82633863  0.64789685  0.40145619     0.14800
H513        H  0.80507837  0.58572158  0.34497374     0.13600
H514        H  0.72666258  0.73844506  0.27206496     0.11300
H515        H  0.80105080  0.77744833  0.27700992     0.13300
C516        C  0.10711624  0.12960704  0.86563747     0.19400
C517        C  0.11360205  0.16891008  0.87146216    -0.18700
C518        C  0.14001724  0.18707344  0.85129103    -0.11000
C519        C  0.15978372  0.16627845  0.82431924     0.21600
C520        C  0.15331303  0.12701626  0.81861011    -0.20300
C521        C  0.12756901  0.10874930  0.83922852    -0.11200
C522        C  0.18417838  0.18529312  0.79914094    -0.15300
C523        C  0.20447009  0.21615610  0.80813718    -0.29200
C524        C  0.07716887  0.11122198  0.88521653    -0.03400
C525        C  0.07975235  0.07486609  0.89465797    -0.40000
H526        H  0.09787349  0.18565308  0.89135972     0.12800
H527        H  0.14373091  0.21759706  0.85569569     0.12400
H528        H  0.16779330  0.11053193  0.79761648     0.11800
H529        H  0.12259430  0.07862776  0.83339515     0.12100
H530        H  0.18527799  0.17351138  0.77175060     0.14800
H531        H  0.20520968  0.22722486  0.83571091     0.13600
H532        H  0.05257633  0.12770462  0.89159893     0.11300
H533        H  0.10533126  0.05945190  0.89038400     0.13300
C534        C  0.33195270  0.36608227  0.81013122     0.19400
C535        C  0.33699314  0.38553780  0.84344036    -0.18700
C536        C  0.36332319  0.41422300  0.84777894    -0.11000
C537        C  0.38541841  0.42378129  0.81879533     0.21600
C538        C  0.38037169  0.40432978  0.78560516    -0.20300
C539        C  0.35433984  0.37561451  0.78132996    -0.11200
C540        C  0.41366430  0.45401626  0.82150386    -0.15300
C541        C  0.42981872  0.46617053  0.85203822    -0.29200
C542        C  0.30438236  0.33500094  0.80655716    -0.03400
C543        C  0.29018123  0.32313057  0.77491986    -0.40000
H544        H  0.32033032  0.37868399  0.86613305     0.12800
H545        H  0.36584763  0.42908448  0.87364705     0.12400
H546        H  0.39713921  0.41093384  0.76290662     0.11800
H547        H  0.35263743  0.36049880  0.75552830     0.12100
H548        H  0.42307255  0.46562288  0.79681835     0.14800
H549        H  0.42234595  0.45411422  0.87700537     0.13600
H550        H  0.29600305  0.32151366  0.83059720     0.11300
H551        H  0.29761633  0.33763125  0.75119652     0.13300
C552        C  0.83640996  0.18139287  0.11117259     0.19400
C553        C  0.84191061  0.14411386  0.12203894    -0.18700
C554        C  0.85399773  0.11494179  0.09776605    -0.11000
C555        C  0.86188998  0.12258757  0.06226475     0.21600
C556        C  0.85686817  0.16004060  0.05130648    -0.20300
C557        C  0.84414091  0.18916666  0.07550312    -0.11200
C558        C  0.87596072  0.09096627  0.03773608    -0.15300
C559        C  0.90146504  0.09644285  0.01267186    -0.29200
C560        C  0.82154793  0.21081263  0.13762001    -0.03400
C561        C  0.79904614  0.23913681  0.12867511    -0.40000
H562        H  0.83612106  0.13733580  0.14931573     0.12800
H563        H  0.85774118  0.08639295  0.10689250     0.12400
H564        H  0.86236950  0.16675940  0.02399003     0.11800
H565        H  0.84072576  0.21769831  0.06630780     0.12100
H566        H  0.86875799  0.06184569  0.04347927     0.14800
H567        H  0.91188160  0.12500037  0.00938760     0.13600
H568        H  0.82533847  0.20623187  0.16574644     0.11300
H569        H  0.79339093  0.24283002  0.10074948     0.13300
C570        C  0.65323710  0.36669301  0.11707105     0.19400
C571        C  0.65116522  0.38690000  0.08590011    -0.18700
C572        C  0.62126495  0.41072725  0.08005399    -0.11000
C573        C  0.59261154  0.41426154  0.10519290     0.21600
C574        C  0.59443280  0.39340835  0.13595174    -0.20300
C575        C  0.62419322  0.36967928  0.14175223    -0.11200
C576        C  0.56119674  0.44057024  0.10163321    -0.15300
C577        C  0.55051836  0.45527195  0.07101895    -0.29200
C578        C  0.68552775  0.34215683  0.12300194    -0.03400
C579        C  0.69736568  0.33573124  0.15597137    -0.40000
H580        H  0.67309022  0.38486347  0.06640801     0.12800
H581        H  0.62123059  0.42686937  0.05635283     0.12400
H582        H  0.57267267  0.39545390  0.15562850     0.11800
H583        H  0.62412068  0.35345104  0.16544219     0.12100
H584        H  0.54552810  0.44816629  0.12574029     0.14800
H585        H  0.56441275  0.44767722  0.04602229     0.13600
H586        H  0.70000551  0.33005496  0.09972735     0.11300
H587        H  0.68377770  0.34992531  0.17885406     0.13300
C588        C  0.82993536  0.36373055  0.28265636     0.19400
C589        C  0.86591041  0.37218674  0.29255339    -0.18700
C590        C  0.87307508  0.39624963  0.32282329    -0.11000
C591        C  0.84417401  0.41200438  0.34393367     0.21600
C592        C  0.80840010  0.40248869  0.33452369    -0.20300
C593        C  0.80131345  0.37858420  0.30456562    -0.11200
C594        C  0.84904852  0.43886557  0.37558758    -0.15300
C595        C  0.88086625  0.45307816  0.38763293    -0.29200
C596        C  0.82258890  0.33807329  0.25051312    -0.03400
C597        C  0.79085890  0.33974878  0.23303954    -0.40000
H598        H  0.88849023  0.36049347  0.27659424     0.12800
H599        H  0.90112438  0.40237106  0.32927547     0.12400
H600        H  0.78557978  0.41366416  0.35048997     0.11800
H601        H  0.77325323  0.37132996  0.29920820     0.12100
H602        H  0.82437440  0.44881267  0.38953839     0.14800
H603        H  0.90651233  0.44445177  0.37510882     0.13600
H604        H  0.84290332  0.31670800  0.24202650     0.11300
H605        H  0.77100409  0.36169919  0.24105875     0.13300
C606        C  0.57846118  0.12874101  0.54740516     0.19400
C607        C  0.58458839  0.11091699  0.57947933    -0.18700
C608        C  0.61436353  0.12152360  0.60115025    -0.11000
C609        C  0.63829671  0.15043958  0.59107603     0.21600
C610        C  0.63190411  0.16806514  0.55910569    -0.20300
C611        C  0.60240026  0.15774588  0.53781893    -0.11200
C612        C  0.66837673  0.16615609  0.61367102    -0.15300
C613        C  0.68065773  0.15220934  0.64406600    -0.29200
C614        C  0.54608119  0.11899591  0.52497377    -0.03400
C615        C  0.54687598  0.12379825  0.48967101    -0.40000
H616        H  0.56622438  0.08899973  0.58784096     0.12800
H617        H  0.61790545  0.10773610  0.62597053     0.12400
H618        H  0.64935336  0.19088789  0.55088114     0.11800
H619        H  0.59786139  0.17366244  0.51435588     0.12100
H620        H  0.68120739  0.19170530  0.60445193     0.14800
H621        H  0.67116889  0.12501681  0.65292989     0.13600
H622        H  0.52121657  0.10976501  0.53766094     0.11300
H623        H  0.57293105  0.12987896  0.47763297     0.13300
C624        C  0.38326829  0.19195606  0.59368865     0.19400
C625        C  0.37980520  0.17098154  0.62439662    -0.18700
C626        C  0.35340645  0.18103690  0.65062395    -0.11000
C627        C  0.33011238  0.21260397  0.64662651     0.21600
C628        C  0.33399274  0.23363824  0.61607426    -0.20300
C629        C  0.36026126  0.22370869  0.59010843    -0.11200
C630        C  0.30186317  0.22591885  0.67328219    -0.15300
C631        C  0.29617890  0.21229158  0.70570715    -0.29200
C632        C  0.41142457  0.18074233  0.56615607    -0.03400
C633        C  0.40783998  0.18845479  0.53156141    -0.40000
H634        H  0.39738342  0.14654746  0.62794890     0.12800
H635        H  0.35147720  0.16402167  0.67368309     0.12400
H636        H  0.31681956  0.25837059  0.61238817     0.11800
H637        H  0.36281128  0.24151933  0.56761356     0.12100
H638        H  0.28475294  0.24923520  0.66545566     0.14800
H639        H  0.31108743  0.18755887  0.71404706     0.13600
H640        H  0.43460454  0.16405147  0.57425230     0.11300
H641        H  0.38301812  0.20196273  0.52289820     0.13300
C642        C  0.67836782  0.19314275  0.26411637     0.19400
C643        C  0.64975137  0.16773150  0.25666346    -0.18700
C644        C  0.62696569  0.15625416  0.28410712    -0.11000
C645        C  0.63275891  0.16971939  0.31964021     0.21600
C646        C  0.66271841  0.19335984  0.32721265    -0.20300
C647        C  0.68517974  0.20518324  0.29974883    -0.11200
C648        C  0.60820755  0.15994851  0.34943232    -0.15300
C649        C  0.57271137  0.15183330  0.34484336    -0.29200
C650        C  0.70066881  0.20700019  0.23443861    -0.03400
C651        C  0.71211432  0.24341279  0.23467650    -0.40000
H652        H  0.64446032  0.15753630  0.22945577     0.12800
H653        H  0.60501186  0.13680135  0.27737598     0.12400
H654        H  0.66822680  0.20350587  0.35438797     0.11800
H655        H  0.70783017  0.22381197  0.30639124     0.12100
H656        H  0.61917937  0.16234190  0.37614899     0.14800
H657        H  0.56117126  0.15215363  0.31837010     0.13600
H658        H  0.70550919  0.18776082  0.21119090     0.11300
H659        H  0.70408221  0.26322077  0.25666898     0.13300
C660        C  0.07760500  0.90477466  0.81234096     0.19400
C661        C  0.09591986  0.91861377  0.78272806    -0.18700
C662        C  0.11797822  0.89445329  0.76076225    -0.11000
C663        C  0.12234452  0.85572244  0.76804491     0.21600
C664        C  0.10362754  0.84173072  0.79727487    -0.20300
C665        C  0.08156119  0.86587218  0.81924951    -0.11200
C666        C  0.14460087  0.82852618  0.74502465    -0.15300
C667        C  0.17078592  0.83907141  0.72231979    -0.29200
C668        C  0.05492258  0.93208535  0.83496026    -0.03400
C669        C  0.04041215  0.92466263  0.86694361    -0.40000
H670        H  0.09314511  0.94832894  0.77649902     0.12800
H671        H  0.13088127  0.90619664  0.73783541     0.12400
H672        H  0.10609560  0.81189752  0.80316671     0.11800
H673        H  0.06754915  0.85356319  0.84122261     0.12100
H674        H  0.13939051  0.79818017  0.74691408     0.14800
H675        H  0.17774785  0.86895272  0.72063506     0.13600
H676        H  0.05163802  0.96067353  0.82551242     0.11300
H677        H  0.04428319  0.89718774  0.87825543     0.13300
C678        C  0.29616195  0.69432241  0.75244920     0.19400
C679        C  0.32042764  0.70447142  0.78000788    -0.18700
C680        C  0.34433930  0.67745157  0.79310259    -0.11000
C681        C  0.34447874  0.63938212  0.77897133     0.21600
C682        C  0.31975990  0.62898873  0.75186621    -0.20300
C683        C  0.29595664  0.65611874  0.73857771    -0.11200
C684        C  0.36907522  0.60965397  0.79271474    -0.15300
C685        C  0.40158418  0.61786221  0.80754422    -0.29200
C686        C  0.27069605  0.72412093  0.74019048    -0.03400
C687        C  0.25414513  0.72229303  0.70825160    -0.40000
H688        H  0.32084130  0.73349800  0.79156694     0.12800
H689        H  0.36205594  0.68637422  0.81481664     0.12400
H690        H  0.31891152  0.59974754  0.74087294     0.11800
H691        H  0.27700104  0.64678145  0.71807741     0.12100
H692        H  0.36086728  0.58001990  0.78887724     0.14800
H693        H  0.41116510  0.64715736  0.80871793     0.13600
H694        H  0.26700327  0.74962394  0.75765413     0.11300
H695        H  0.25997707  0.69861204  0.68917994     0.13300
C696        C  0.31275246  0.84992854  0.59868195     0.19400
C697        C  0.31615315  0.88384350  0.58067034    -0.18700
C698        C  0.34631310  0.88953431  0.55845538    -0.11000
C699        C  0.37392608  0.86148018  0.55433120     0.21600
C700        C  0.37105683  0.82832788  0.57345283    -0.20300
C701        C  0.34103883  0.82266923  0.59553195    -0.11200
C702        C  0.40459259  0.86378062  0.52845310    -0.15300
C703        C  0.41593416  0.89593977  0.51386005    -0.29200
C704        C  0.27998322  0.84384399  0.62116873    -0.03400
C705        C  0.26704058  0.80863380  0.62654959    -0.40000
H706        H  0.29492445  0.90549997  0.58301582     0.12800
H707        H  0.34718113  0.91522450  0.54378684     0.12400
H708        H  0.39202786  0.80639611  0.57099397     0.11800
H709        H  0.34017741  0.79693027  0.61014900     0.12100
H710        H  0.41835048  0.83707656  0.52025115     0.14800
H711        H  0.40390689  0.92345619  0.52194102     0.13600
H712        H  0.26611424  0.86903238  0.63281007     0.11300
H713        H  0.27981497  0.78394275  0.61273249     0.13300
C714        C  0.16204163  0.37325943  0.59147830     0.19400
C715        C  0.14768848  0.37358800  0.62627957    -0.18700
C716        C  0.16262326  0.35037904  0.65156746    -0.11000
C717        C  0.19240386  0.32619837  0.64253494     0.21600
C718        C  0.20650876  0.32550556  0.60764046    -0.20300
C719        C  0.19153694  0.34868402  0.58231505    -0.11200
C720        C  0.21138888  0.30383427  0.66933423    -0.15300
C721        C  0.19600917  0.29366019  0.70001657    -0.29200
C722        C  0.14733710  0.40119296  0.56679724    -0.03400
C723        C  0.15349373  0.39979842  0.53131153    -0.40000
H724        H  0.12529765  0.39259111  0.63421979     0.12800
H725        H  0.15161940  0.35267854  0.67840829     0.12400
H726        H  0.22974749  0.30749325  0.60012765     0.11800
H727        H  0.20411196  0.34815227  0.55617222     0.12100
H728        H  0.23914164  0.29513295  0.66299341     0.14800
H729        H  0.16731458  0.29938428  0.70520715     0.13600
H730        H  0.13037942  0.42408985  0.57862883     0.11300
H731        H  0.16771343  0.37559100  0.51826384     0.13300
C732        C  0.14305340  0.63065709  0.32405979     0.19400
C733        C  0.14034931  0.62083012  0.28741620    -0.18700
C734        C  0.15000548  0.64687683  0.26217169    -0.11000
C735        C  0.16234987  0.68348761  0.27319429     0.21600
C736        C  0.16339159  0.69399233  0.30976116    -0.20300
C737        C  0.15355323  0.66802565  0.33501273    -0.11200
C738        C  0.17871051  0.70944301  0.24783313    -0.15300
C739        C  0.17165456  0.70848562  0.21273023    -0.29200
C740        C  0.13594075  0.60054741  0.34950888    -0.03400
C741        C  0.14724266  0.60204960  0.38360182    -0.40000
H742        H  0.13213949  0.59231820  0.27824009     0.12800
H743        H  0.14955545  0.63753277  0.23424451     0.12400
H744        H  0.17275866  0.72211827  0.31884992     0.11800
H745        H  0.15481059  0.67733695  0.36288525     0.12100
H746        H  0.19856644  0.72980058  0.25857715     0.14800
H747        H  0.14965906  0.69137908  0.20138666     0.13600
H748        H  0.12220569  0.57507904  0.33900527     0.11300
H749        H  0.16042928  0.62735177  0.39510856     0.13300
C750        C  0.15327078  0.67193525  0.59127435     0.19400
C751        C  0.16629453  0.63425325  0.58716066    -0.18700
C752        C  0.14887366  0.60728188  0.56470493    -0.11000
C753        C  0.11748897  0.61713700  0.54580708     0.21600
C754        C  0.10442208  0.65490001  0.54974870    -0.20300
C755        C  0.12201523  0.68207613  0.57228043    -0.11200
C756        C  0.10110150  0.58991217  0.51863846    -0.15300
C757        C  0.10749541  0.55208406  0.51853355    -0.29200
C758        C  0.17421085  0.69957154  0.61450688    -0.03400
C759        C  0.16135823  0.73376670  0.62704024    -0.40000
H760        H  0.19055885  0.62571250  0.60094610     0.12800
H761        H  0.16124320  0.57919830  0.56125911     0.12400
H762        H  0.08098744  0.66357735  0.53480734     0.11800
H763        H  0.11154904  0.71104729  0.57377819     0.12100
H764        H  0.08734525  0.60155760  0.49612882     0.14800
H765        H  0.11819935  0.54049460  0.54244758     0.13600
H766        H  0.20083311  0.69029959  0.62302293     0.11300
H767        H  0.13373713  0.74234970  0.62121739     0.13300
C768        C  0.08525161  0.11194141  0.09372442     0.19400
C769        C  0.09852334  0.10084178  0.12648904    -0.18700
C770        C  0.12242762  0.12424015  0.14629456    -0.11000
C771        C  0.13330819  0.15964888  0.13391748     0.21600
C772        C  0.11944946  0.17117635  0.10144835    -0.20300
C773        C  0.09591048  0.14738264  0.08127933    -0.11200
C774        C  0.15699865  0.18592637  0.15566415    -0.15300
C775        C  0.18197427  0.17314168  0.17824750    -0.29200
C776        C  0.05905030  0.08655718  0.07429490    -0.03400
C777        C  0.05694647  0.08304318  0.03852484    -0.40000
H778        H  0.09028854  0.07392315  0.13685678     0.12800
H779        H  0.13140430  0.11499316  0.17180181     0.12400
H780        H  0.12685099  0.19864001  0.09170640     0.11800
H781        H  0.08536349  0.15716519  0.05653664     0.12100
H782        H  0.15328692  0.21655110  0.15372806     0.14800
H783        H  0.18711826  0.14262279  0.17885918     0.13600
H784        H  0.04253556  0.06804131  0.09010927     0.11300
H785        H  0.07518368  0.09907632  0.02212299     0.13300
C786        C  0.30890734  0.31944495  0.16272077     0.19400
C787        C  0.33407525  0.31300272  0.13462239    -0.18700
C788        C  0.35713391  0.34217522  0.12429876    -0.11000
C789        C  0.35543523  0.37880115  0.14174749     0.21600
C790        C  0.32978065  0.38547086  0.16942883    -0.20300
C791        C  0.30686194  0.35616010  0.17994516    -0.11200
C792        C  0.37877500  0.41097916  0.13074590    -0.15300
C793        C  0.41129122  0.40567975  0.11415694    -0.29200
C794        C  0.28421484  0.28771423  0.17192783    -0.03400
C795        C  0.26813667  0.28502425  0.20414157    -0.40000
H796        H  0.33585011  0.28523685  0.12048315     0.12800
H797        H  0.37555766  0.33607112  0.10204433     0.12400
H798        H  0.32742679  0.41351883  0.18296228     0.11800
H799        H  0.28707565  0.36266487  0.20095191     0.12100
H800        H  0.36948083  0.43991726  0.13779809     0.14800
H801        H  0.42216393  0.37689851  0.10974429     0.13600
H802        H  0.28059483  0.26477096  0.15167511     0.11300
H803        H  0.27403614  0.30607916  0.22553816     0.13300
C804        C  0.36727484  0.14792966  0.37121694     0.19400
C805        C  0.33343642  0.13108091  0.36386008    -0.18700
C806        C  0.30882443  0.14823832  0.34110031    -0.11000
C807        C  0.31741089  0.18302780  0.32583799     0.21600
C808        C  0.35068889  0.20043785  0.33429948    -0.20300
C809        C  0.37540436  0.18306448  0.35649767    -0.11200
C810        C  0.29213169  0.20231973  0.30162351    -0.15300
C811        C  0.26984077  0.18266945  0.27924636    -0.29200
C812        C  0.39335741  0.13026807  0.39577305    -0.03400
C813        C  0.42940777  0.13270669  0.39004207    -0.40000
H814        H  0.32619563  0.10451429  0.37548262     0.12800
H815        H  0.28288616  0.13460485  0.33604033     0.12400
H816        H  0.35775567  0.22745884  0.32341252     0.11800
H817        H  0.40068700  0.19760057  0.36269533     0.12100
H818        H  0.29388031  0.23316811  0.30070403     0.14800
H819        H  0.27053093  0.15160608  0.27868361     0.13600
H820        H  0.38306695  0.11788679  0.41971456     0.11300
H821        H  0.43820823  0.14276184  0.36458936     0.13300
C822        C  0.16343846  0.32859625  0.32245830     0.19400
C823        C  0.17959260  0.36334511  0.33358665    -0.18700
C824        C  0.16086468  0.39015796  0.35582722    -0.11000
C825        C  0.12505822  0.38321238  0.36750565     0.21600
C826        C  0.10893751  0.34822087  0.35698200    -0.20300
C827        C  0.12777135  0.32119769  0.33456962    -0.11200
C828        C  0.10600394  0.41074502  0.39327484    -0.15300
C829        C  0.11384108  0.44825027  0.39439995    -0.29200
C830        C  0.18534379  0.30126869  0.29880445    -0.03400
C831        C  0.17171760  0.27024221  0.28103956    -0.40000
H832        H  0.20709357  0.36974876  0.32526247     0.12800
H833        H  0.17513632  0.41585236  0.36468313     0.12400
H834        H  0.08179614  0.34170267  0.36627896     0.11800
H835        H  0.11438028  0.29451386  0.32754376     0.12100
H836        H  0.08866662  0.39957723  0.41377400     0.14800
H837        H  0.12974696  0.45854915  0.37252460     0.13600
H838        H  0.21363476  0.30847349  0.29442364     0.11300
H839        H  0.14300995  0.26385619  0.28335070     0.13300
loop_ 
_geom_bond_atom_site_label_1 
_geom_bond_atom_site_label_2 
_geom_bond_distance 
_geom_bond_site_symmetry_2 
_ccdc_geom_bond_type 
C1            C2   1.536       .  S
C1            C7   1.531       .  S
C1            C5   1.531       .  S
C1          C775   1.512       .  S
C2            H9   1.085       .  S
C2            C3   1.373       .  D
C3            C4   1.545       .  S
C3          C795   1.492       .  S
C4            C8   1.550       .  S
C4            C6   1.550       .  S
C4           H10   1.106       .  S
C5           H11   1.087       .  S
C5            C6   1.363       .  D
C6          C811   1.490       .  S
C7           H12   1.087       .  S
C7            C8   1.363       .  D
C8          C831   1.490       .  S
C13         C829   1.518       .  S
C13          C15   1.538       .  S
C13          C17   1.535       .  S
C13          C16   1.542       .  S
C14         C757   1.514       .  S
C14          C18   1.542       .  S
C14          C20   1.533       .  S
C14          C19   1.535       .  S
C15          C23   1.379       .  A
C15          C18   1.403       .  A
C16          C27   1.378       .  A
C16          C19   1.399       .  A
C17          C31   1.382       .  A
C17          C20   1.385       .  A
C18          C21   1.386       .  A
C19          C25   1.374       .  A
C20          C28   1.376       .  A
C21          N22   1.351       .  A
C21          H34   1.081       .  S
N22          C23   1.352       .  A
N22         C741   1.439       .  S
C23          H24   1.081       .  S
C25          N26   1.361       .  A
C25          H35   1.080       .  S
N26          C27   1.365       .  A
N26         N108   1.415   1_455  S
C27          H33   1.081       .  S
C28          N29   1.358       .  A
C28          H30   1.081       .  S
N29          C31   1.357       .  A
N29         C723   1.441       .  S
C31          H32   1.081       .  S
C36          C37   1.539       .  S
C36          C42   1.532       .  S
C36          C40   1.536       .  S
C36         C667   1.511       .  S
C37          H44   1.085       .  S
C37          C38   1.370       .  D
C38          C39   1.537       .  S
C38         C687   1.490       .  S
C39          C43   1.545       .  S
C39          C41   1.542       .  S
C39          H45   1.109       .  S
C40          H46   1.084       .  S
C40          C41   1.370       .  D
C41         C705   1.487       .  S
C42          H47   1.087       .  S
C42          C43   1.361       .  D
C43         C759   1.485       .  S
C48         C813   1.519       .  S
C48          C50   1.543       .  S
C48          C52   1.531       .  S
C48          C51   1.542       .  S
C49         C615   1.516       .  S
C49          C53   1.543       .  S
C49          C55   1.537       .  S
C49          C54   1.533       .  S
C50          C58   1.380       .  A
C50          C53   1.410       .  A
C51          C62   1.380       .  A
C51          C54   1.402       .  A
C52          C66   1.379       .  A
C52          C55   1.381       .  A
C53          C56   1.387       .  A
C54          C60   1.373       .  A
C55          C63   1.383       .  A
C56          N57   1.357       .  A
C56          H69   1.080       .  S
N57          C58   1.351       .  A
N57         C633   1.442       .  S
C58          H59   1.081       .  S
C60          N61   1.355       .  A
C60          H70   1.083       .  S
N61          C62   1.359       .  A
N61         N155   1.403   1_545  S
C62          H68   1.082       .  S
C63          N64   1.360       .  A
C63          H65   1.079       .  S
N64          C66   1.355       .  A
N64         C649   1.442       .  S
C66          H67   1.081       .  S
C71          C72   1.545       .  S
C71          C77   1.541       .  S
C71          C75   1.541       .  S
C71         C561   1.516       .  S
C72          H79   1.085       .  S
C72          C73   1.371       .  D
C73          C74   1.531       .  S
C73         C597   1.480       .  S
C74          C78   1.531       .  S
C74          C76   1.532       .  S
C74          H80   1.112       .  S
C75          H81   1.085       .  S
C75          C76   1.366       .  D
C76         C651   1.483       .  S
C77          H82   1.084       .  S
C77          C78   1.368       .  D
C78         C579   1.484       .  S
C83          C84   1.538       .  S
C83          C89   1.540       .  S
C83          C87   1.543       .  S
C83         C523   1.516       .  S
C84          H91   1.087       .  S
C84          C85   1.362       .  D
C85          C86   1.538       .  S
C85         C721   1.485       .  S
C86          C90   1.537       .  S
C86          C88   1.542       .  S
C86          H92   1.106       .  S
C87          H93   1.086       .  S
C87          C88   1.367       .  D
C88         C631   1.490       .  S
C89          H94   1.084       .  S
C89          C90   1.370       .  D
C90         C543   1.487       .  S
C95         C471   1.516       .  S
C95          C97   1.536       .  S
C95          C99   1.534       .  S
C95          C98   1.541       .  S
C96         C595   1.513       .  S
C96         C100   1.537       .  S
C96         C102   1.537       .  S
C96         C101   1.537       .  S
C97         C105   1.378       .  A
C97         C100   1.389       .  A
C98         C109   1.378       .  A
C98         C101   1.397       .  A
C99         C113   1.374       .  A
C99         C102   1.389       .  A
C100        C103   1.378       .  A
C101        C107   1.376       .  A
C102        C110   1.380       .  A
C103        N104   1.359       .  A
C103        H116   1.083       .  S
N104        C105   1.362       .  A
N104        C505   1.443       .  S
C105        H106   1.081       .  S
C107        N108   1.360       .  A
C107        H117   1.081       .  S
N108        C109   1.363       .  A
C109        H115   1.080       .  S
C110        N111   1.362       .  A
C110        H112   1.081       .  S
N111        C113   1.357       .  A
N111        C487   1.440       .  S
C113        H114   1.082       .  S
C118        C119   1.539       .  S
C118        C124   1.538       .  S
C118        C122   1.537       .  S
C118        C415   1.518       .  S
C119        H126   1.086       .  S
C119        C120   1.367       .  D
C120        C121   1.544       .  S
C120        C435   1.492       .  S
C121        C125   1.541       .  S
C121        C123   1.545       .  S
C121        H127   1.099       .  S
C122        H128   1.087       .  S
C122        C123   1.364       .  D
C123        C453   1.490       .  S
C124        H129   1.087       .  S
C124        C125   1.366       .  D
C125        C507   1.488       .  S
C130        C131   1.537       .  S
C130        C136   1.540       .  S
C130        C134   1.543       .  S
C130        C381   1.515       .  S
C131        H138   1.085       .  S
C131        C132   1.367       .  D
C132        C133   1.534       .  S
C132        C397   1.484       .  S
C133        C137   1.532       .  S
C133        C135   1.543       .  S
C133        H139   1.109       .  S
C134        H140   1.086       .  S
C134        C135   1.370       .  D
C135        C613   1.490       .  S
C136        H141   1.085       .  S
C136        C137   1.367       .  D
C137        C489   1.488       .  S
C142        C703   1.514       .  S
C142        C144   1.544       .  S
C142        C146   1.542       .  S
C142        C145   1.539       .  S
C143        C451   1.511       .  S
C143        C147   1.534       .  S
C143        C149   1.524       .  S
C143        C148   1.534       .  S
C144        C152   1.388       .  A
C144        C147   1.406       .  A
C145        C156   1.379       .  A
C145        C148   1.397       .  A
C146        C160   1.386       .  A
C146        C149   1.387       .  A
C147        C150   1.375       .  A
C148        C154   1.375       .  A
C149        C157   1.370       .  A
C150        N151   1.348       .  A
C150        H163   1.083       .  S
N151        C152   1.357       .  A
N151        C361   1.438       .  S
C152        H153   1.083       .  S
C154        N155   1.356       .  A
C154        H164   1.082       .  S
N155        C156   1.357       .  A
C156        H162   1.082       .  S
C157        N158   1.355       .  A
C157        H159   1.083       .  S
N158        C160   1.364       .  A
N158        C343   1.440       .  S
C160        H161   1.082       .  S
C165        C166   1.542       .  S
C165        C171   1.538       .  S
C165        C169   1.545       .  S
C165        C309   1.512       .  S
C166        H173   1.086       .  S
C166        C167   1.363       .  D
C167        C168   1.533       .  S
C167        C739   1.476       .  S
C168        C172   1.534       .  S
C168        C170   1.529       .  S
C168        H174   1.111       .  S
C169        H175   1.084       .  S
C169        C170   1.369       .  D
C170        C363   1.482       .  S
C171        H176   1.084       .  S
C171        C172   1.369       .  D
C172        C327   1.486       .  S
C177        C178   1.539       .  S
C177        C183   1.539       .  S
C177        C181   1.540       .  S
C177        C273   1.518       .  S
C178        H185   1.084       .  S
C178        C179   1.371       .  D
C179        C180   1.540       .  S
C179        C469   1.491       .  S
C180        C184   1.534       .  S
C180        C182   1.543       .  S
C180        H186   1.107       .  S
C181        H187   1.086       .  S
C181        C182   1.367       .  D
C182        C345   1.491       .  S
C183        H188   1.084       .  S
C183        C184   1.367       .  D
C184        C289   1.486       .  S
C189        C577   1.511       .  S
C189        C191   1.534       .  S
C189        C193   1.535       .  S
C189        C192   1.537       .  S
C190        C325   1.509       .  S
C190        C194   1.540       .  S
C190        C196   1.541       .  S
C190        C195   1.538       .  S
C191        C199   1.373       .  A
C191        C194   1.390       .  A
C192        C203   1.381       .  A
C192        C195   1.397       .  A
C193        C207   1.376       .  A
C193        C196   1.390       .  A
C194        C197   1.383       .  A
C195        C201   1.377       .  A
C196        C204   1.383       .  A
C197        N198   1.364       .  A
C197        H210   1.082       .  S
N198        C199   1.356       .  A
N198        C433   1.442       .  S
C199        H200   1.083       .  S
C201        N202   1.355   1_554  A
C201        H211   1.082   1_554  S
N202        C203   1.357   1_556  A
N202        N225   1.404       .  S
C203        H209   1.082   1_554  S
C204        N205   1.364       .  A
C204        H206   1.081       .  S
N205        C207   1.358       .  A
N205        C793   1.444       .  S
C207        H208   1.083       .  S
C212        C291   1.514       .  S
C212        C214   1.536       .  S
C212        C216   1.533       .  S
C212        C215   1.538       .  S
C213        C541   1.513       .  S
C213        C217   1.540       .  S
C213        C219   1.537       .  S
C213        C218   1.536       .  S
C214        C222   1.376       .  A
C214        C217   1.400       .  A
C215        C226   1.381       .  A
C215        C218   1.397       .  A
C216        C230   1.376       .  A
C216        C219   1.387       .  A
C217        C220   1.383       .  A
C218        C224   1.376       .  A
C219        C227   1.380       .  A
C220        N221   1.360       .  A
C220        H233   1.082       .  S
N221        C222   1.352       .  A
N221        C399   1.441       .  S
C222        H223   1.084       .  S
C224        N225   1.355       .  A
C224        H234   1.082       .  S
N225        C226   1.358       .  A
C226        H232   1.082       .  S
C227        N228   1.363       .  A
C227        H229   1.082       .  S
N228        C230   1.358       .  A
N228        C685   1.443       .  S
C230        H231   1.083       .  S
O235        C243   1.265       .  A
O235       Co255   1.896   1_454  S
O236        C244   1.268       .  A
O236       Co256   1.977       .  S
O237        C245   1.262       .  A
O237       Co257   1.993   1_545  S
O238        C246   1.282       .  A
O238       Co258   2.046   1_545  S
O239        C245   1.266       .  A
O239       Co256   1.998   1_455  S
O240        C246   1.265       .  A
O240       Co255   1.962       .  S
O241        C244   1.271       .  A
O241       Co258   2.006   1_545  S
O242        C243   1.294   1_556  A
O242       Co257   2.112   1_545  S
C243        C777   1.478       .  S
C244        C379   1.476       .  S
C245        C525   1.476       .  S
C246        C559   1.475   1_556  S
O247        C260   1.264       .  A
O247       Co255   2.014   1_564  S
O248        C261   1.279       .  A
O248       Co256   2.022   1_465  S
O249        C262   1.266       .  A
O249       Co257   1.900       .  S
O250        C263   1.268       .  A
O250       Co258   1.978       .  S
O251        C263   1.274       .  A
O251       Co256   2.022   1_565  S
O252        C262   1.294   1_554  A
O252       Co255   2.103   1_464  S
O253        C260   1.258   1_556  A
O253       Co258   1.981       .  S
O254        C261   1.269       .  A
O254       Co257   1.971       .  S
Co255       O259   2.001       .  S
Co256       O259   2.037       .  S
Co257       O259   1.999   1_465  S
Co258       O259   2.028   1_565  S
C260        C417   1.478       .  S
C261        C669   1.476       .  S
C262        C307   1.474   1_556  S
C263        C271   1.484       .  S
C264        C265   1.404       .  A
C264        C269   1.408       .  A
C264        C272   1.494       .  S
C265        C266   1.402       .  A
C265        H274   1.084       .  S
C266        C267   1.410       .  A
C266        H275   1.080       .  S
C267        C268   1.405       .  A
C267        C270   1.497       .  S
C268        C269   1.400       .  A
C268        H276   1.084       .  S
C269        H277   1.081       .  S
C270        H278   1.087       .  S
C270        C271   1.349       .  D
C271        H279   1.084       .  S
C272        H280   1.087       .  S
C272        C273   1.348       .  D
C273        H281   1.085       .  S
C282        C283   1.404       .  A
C282        C287   1.408       .  A
C282        C290   1.488       .  S
C283        C284   1.396       .  A
C283        H292   1.083       .  S
C284        C285   1.406       .  A
C284        H293   1.082       .  S
C285        C286   1.404       .  A
C285        C288   1.487       .  S
C286        C287   1.402       .  A
C286        H294   1.083       .  S
C287        H295   1.081       .  S
C288        H296   1.084       .  S
C288        C289   1.348       .  D
C289        H297   1.084       .  S
C290        H298   1.088       .  S
C290        C291   1.349       .  D
C291        H299   1.083       .  S
C300        C301   1.402       .  A
C300        C305   1.409       .  A
C300        C308   1.488       .  S
C301        C302   1.396       .  A
C301        H310   1.083       .  S
C302        C303   1.407       .  A
C302        H311   1.081       .  S
C303        C304   1.404       .  A
C303        C306   1.488       .  S
C304        C305   1.401       .  A
C304        H312   1.084       .  S
C305        H313   1.080       .  S
C306        H314   1.087       .  S
C306        C307   1.347       .  D
C307        H315   1.084       .  S
C308        H316   1.088       .  S
C308        C309   1.346       .  D
C309        H317   1.084       .  S
C318        C319   1.404       .  A
C318        C323   1.409       .  A
C318        C326   1.489       .  S
C319        C320   1.400       .  A
C319        H328   1.083       .  S
C320        C321   1.408       .  A
C320        H329   1.081       .  S
C321        C322   1.401       .  A
C321        C324   1.485       .  S
C322        C323   1.396       .  A
C322        H330   1.083       .  S
C323        H331   1.081       .  S
C324        H332   1.087       .  S
C324        C325   1.344       .  D
C325        H333   1.083       .  S
C326        H334   1.084       .  S
C326        C327   1.347       .  D
C327        H335   1.083       .  S
C336        C337   1.403       .  A
C336        C341   1.409       .  A
C336        C344   1.489       .  S
C337        C338   1.396       .  A
C337        H346   1.083       .  S
C338        C339   1.408       .  A
C338        H347   1.082       .  S
C339        C340   1.405       .  A
C339        C342   1.492       .  S
C340        C341   1.404       .  A
C340        H348   1.083       .  S
C341        H349   1.082       .  S
C342        H350   1.086       .  S
C342        C343   1.346       .  D
C343        H351   1.086       .  S
C344        H352   1.083       .  S
C344        C345   1.347       .  D
C345        H353   1.085       .  S
C354        C355   1.399       .  A
C354        C359   1.408       .  A
C354        C362   1.481       .  S
C355        C356   1.397       .  A
C355        H364   1.083       .  S
C356        C357   1.409       .  A
C356        H365   1.083       .  S
C357        C358   1.402       .  A
C357        C360   1.485       .  S
C358        C359   1.399       .  A
C358        H366   1.083       .  S
C359        H367   1.084       .  S
C360        H368   1.086       .  S
C360        C361   1.344       .  D
C361        H369   1.087       .  S
C362        H370   1.085       .  S
C362        C363   1.342       .  D
C363        H371   1.087       .  S
C372        C373   1.405       .  A
C372        C377   1.409       .  A
C372        C380   1.493       .  S
C373        C374   1.401       .  A
C373        H382   1.084       .  S
C374        C375   1.408       .  A
C374        H383   1.082       .  S
C375        C376   1.403       .  A
C375        C378   1.490       .  S
C376        C377   1.398       .  A
C376        H384   1.084       .  S
C377        H385   1.081       .  S
C378        H386   1.087       .  S
C378        C379   1.345       .  D
C379        H387   1.084       .  S
C380        H388   1.087       .  S
C380        C381   1.347       .  D
C381        H389   1.084       .  S
C390        C391   1.402       .  A
C390        C395   1.409       .  A
C390        C398   1.487       .  S
C391        C392   1.398       .  A
C391        H400   1.083       .  S
C392        C393   1.408       .  A
C392        H401   1.082       .  S
C393        C394   1.403       .  A
C393        C396   1.487       .  S
C394        C395   1.399       .  A
C394        H402   1.084       .  S
C395        H403   1.081       .  S
C396        H404   1.085       .  S
C396        C397   1.345       .  D
C397        H405   1.085       .  S
C398        H406   1.086       .  S
C398        C399   1.345       .  D
C399        H407   1.086       .  S
C408        C409   1.403       .  A
C408        C413   1.406       .  A
C408        C416   1.489       .  S
C409        C410   1.401       .  A
C409        H418   1.084       .  S
C410        C411   1.410       .  A
C410        H419   1.080       .  S
C411        C412   1.406       .  A
C411        C414   1.496       .  S
C412        C413   1.401       .  A
C412        H420   1.083       .  S
C413        H421   1.082       .  S
C414        H422   1.087       .  S
C414        C415   1.349       .  D
C415        H423   1.083       .  S
C416        H424   1.088       .  S
C416        C417   1.346       .  D
C417        H425   1.086       .  S
C426        C427   1.404       .  A
C426        C431   1.408       .  A
C426        C434   1.489       .  S
C427        C428   1.397       .  A
C427        H436   1.083       .  S
C428        C429   1.407       .  A
C428        H437   1.082       .  S
C429        C430   1.406       .  A
C429        C432   1.492       .  S
C430        C431   1.403       .  A
C430        H438   1.083       .  S
C431        H439   1.082       .  S
C432        H440   1.085       .  S
C432        C433   1.348       .  D
C433        H441   1.085       .  S
C434        H442   1.083       .  S
C434        C435   1.348       .  D
C435        H443   1.085       .  S
C444        C445   1.401       .  A
C444        C449   1.409       .  A
C444        C452   1.485       .  S
C445        C446   1.393       .  A
C445        H454   1.083       .  S
C446        C447   1.406       .  A
C446        H455   1.083       .  S
C447        C448   1.403       .  A
C447        C450   1.485       .  S
C448        C449   1.404       .  A
C448        H456   1.082       .  S
C449        H457   1.082       .  S
C450        H458   1.087       .  S
C450        C451   1.344       .  D
C451        H459   1.086       .  S
C452        H460   1.082       .  S
C452        C453   1.346       .  D
C453        H461   1.085       .  S
C462        C463   1.403       .  A
C462        C467   1.407       .  A
C462        C470   1.487       .  S
C463        C464   1.397       .  A
C463        H472   1.084       .  S
C464        C465   1.408       .  A
C464        H473   1.081       .  S
C465        C466   1.406       .  A
C465        C468   1.494       .  S
C466        C467   1.404       .  A
C466        H474   1.084       .  S
C467        H475   1.081       .  S
C468        H476   1.084       .  S
C468        C469   1.350       .  D
C469        H477   1.084       .  S
C470        H478   1.088       .  S
C470        C471   1.349       .  D
C471        H479   1.084       .  S
C480        C481   1.403       .  A
C480        C485   1.409       .  A
C480        C488   1.488       .  S
C481        C482   1.397       .  A
C481        H490   1.083       .  S
C482        C483   1.406       .  A
C482        H491   1.082       .  S
C483        C484   1.404       .  A
C483        C486   1.487       .  S
C484        C485   1.402       .  A
C484        H492   1.083       .  S
C485        H493   1.081       .  S
C486        H494   1.085       .  S
C486        C487   1.347       .  D
C487        H495   1.086       .  S
C488        H496   1.085       .  S
C488        C489   1.347       .  D
C489        H497   1.084       .  S
C498        C499   1.404       .  A
C498        C503   1.406       .  A
C498        C506   1.487       .  S
C499        C500   1.400       .  A
C499        H508   1.083       .  S
C500        C501   1.407       .  A
C500        H509   1.082       .  S
C501        C502   1.404       .  A
C501        C504   1.488       .  S
C502        C503   1.399       .  A
C502        H510   1.083       .  S
C503        H511   1.082       .  S
C504        H512   1.085       .  S
C504        C505   1.348       .  D
C505        H513   1.086       .  S
C506        H514   1.084       .  S
C506        C507   1.347       .  D
C507        H515   1.086       .  S
C516        C517   1.404       .  A
C516        C521   1.407       .  A
C516        C524   1.487       .  S
C517        C518   1.403       .  A
C517        H526   1.084       .  S
C518        C519   1.408       .  A
C518        H527   1.082       .  S
C519        C520   1.402       .  A
C519        C522   1.484       .  S
C520        C521   1.397       .  A
C520        H528   1.084       .  S
C521        H529   1.082       .  S
C522        H530   1.087       .  S
C522        C523   1.346       .  D
C523        H531   1.086       .  S
C524        H532   1.086       .  S
C524        C525   1.343       .  D
C525        H533   1.087       .  S
C534        C535   1.405       .  A
C534        C539   1.409       .  A
C534        C542   1.493       .  S
C535        C536   1.403       .  A
C535        H544   1.083       .  S
C536        C537   1.408       .  A
C536        H545   1.081       .  S
C537        C538   1.401       .  A
C537        C540   1.487       .  S
C538        C539   1.396       .  A
C538        H546   1.083       .  S
C539        H547   1.081       .  S
C540        H548   1.087       .  S
C540        C541   1.345       .  D
C541        H549   1.083       .  S
C542        H550   1.085       .  S
C542        C543   1.348       .  D
C543        H551   1.084       .  S
C552        C553   1.403       .  A
C552        C557   1.409       .  A
C552        C560   1.488       .  S
C553        C554   1.398       .  A
C553        H562   1.084       .  S
C554        C555   1.403       .  A
C554        H563   1.083       .  S
C555        C556   1.408       .  A
C555        C558   1.487       .  S
C556        C557   1.403       .  A
C556        H564   1.083       .  S
C557        H565   1.082       .  S
C558        H566   1.088       .  S
C558        C559   1.344       .  D
C559        H567   1.086       .  S
C560        H568   1.087       .  S
C560        C561   1.346       .  D
C561        H569   1.086       .  S
C570        C571   1.404       .  A
C570        C575   1.406       .  A
C570        C578   1.486       .  S
C571        C572   1.401       .  A
C571        H580   1.083       .  S
C572        C573   1.408       .  A
C572        H581   1.081       .  S
C573        C574   1.402       .  A
C573        C576   1.483       .  S
C574        C575   1.395       .  A
C574        H582   1.083       .  S
C575        H583   1.082       .  S
C576        H584   1.088       .  S
C576        C577   1.346       .  D
C577        H585   1.084       .  S
C578        H586   1.084       .  S
C578        C579   1.346       .  D
C579        H587   1.085       .  S
C588        C589   1.405       .  A
C588        C593   1.408       .  A
C588        C596   1.492       .  S
C589        C590   1.405       .  A
C589        H598   1.084       .  S
C590        C591   1.410       .  A
C590        H599   1.081       .  S
C591        C592   1.401       .  A
C591        C594   1.487       .  S
C592        C593   1.392       .  A
C592        H600   1.084       .  S
C593        H601   1.081       .  S
C594        H602   1.088       .  S
C594        C595   1.345       .  D
C595        H603   1.083       .  S
C596        H604   1.086       .  S
C596        C597   1.345       .  D
C597        H605   1.085       .  S
C606        C607   1.406       .  A
C606        C611   1.407       .  A
C606        C614   1.494       .  S
C607        C608   1.409       .  A
C607        H616   1.083       .  S
C608        C609   1.410       .  A
C608        H617   1.082       .  S
C609        C610   1.401       .  A
C609        C612   1.489       .  S
C610        C611   1.390       .  A
C610        H618   1.084       .  S
C611        H619   1.082       .  S
C612        H620   1.086       .  S
C612        C613   1.347       .  D
C613        H621   1.085       .  S
C614        H622   1.086       .  S
C614        C615   1.346       .  D
C615        H623   1.082       .  S
C624        C625   1.407       .  A
C624        C629   1.405       .  A
C624        C632   1.491       .  S
C625        C626   1.405       .  A
C625        H634   1.083       .  S
C626        C627   1.409       .  A
C626        H635   1.080       .  S
C627        C628   1.404       .  A
C627        C630   1.490       .  S
C628        C629   1.394       .  A
C628        H636   1.084       .  S
C629        H637   1.081       .  S
C630        H638   1.082       .  S
C630        C631   1.347       .  D
C631        H639   1.084       .  S
C632        H640   1.085       .  S
C632        C633   1.349       .  D
C633        H641   1.085       .  S
C642        C643   1.402       .  A
C642        C647   1.406       .  A
C642        C650   1.482       .  S
C643        C644   1.400       .  A
C643        H652   1.083       .  S
C644        C645   1.409       .  A
C644        H653   1.082       .  S
C645        C646   1.403       .  A
C645        C648   1.487       .  S
C646        C647   1.397       .  A
C646        H654   1.083       .  S
C647        H655   1.083       .  S
C648        H656   1.084       .  S
C648        C649   1.347       .  D
C649        H657   1.085       .  S
C650        H658   1.085       .  S
C650        C651   1.345       .  D
C651        H659   1.086       .  S
C660        C661   1.405       .  A
C660        C665   1.408       .  A
C660        C668   1.489       .  S
C661        C662   1.398       .  A
C661        H670   1.083       .  S
C662        C663   1.407       .  A
C662        H671   1.082       .  S
C663        C664   1.403       .  A
C663        C666   1.486       .  S
C664        C665   1.398       .  A
C664        H672   1.083       .  S
C665        H673   1.080       .  S
C666        H674   1.087       .  S
C666        C667   1.347       .  D
C667        H675   1.084       .  S
C668        H676   1.087       .  S
C668        C669   1.349       .  D
C669        H677   1.082       .  S
C678        C679   1.404       .  A
C678        C683   1.408       .  A
C678        C686   1.491       .  S
C679        C680   1.399       .  A
C679        H688   1.083       .  S
C680        C681   1.407       .  A
C680        H689   1.082       .  S
C681        C682   1.405       .  A
C681        C684   1.491       .  S
C682        C683   1.402       .  A
C682        H690   1.083       .  S
C683        H691   1.081       .  S
C684        H692   1.085       .  S
C684        C685   1.348       .  D
C685        H693   1.085       .  S
C686        H694   1.085       .  S
C686        C687   1.348       .  D
C687        H695   1.084       .  S
C696        C697   1.405       .  A
C696        C701   1.406       .  A
C696        C704   1.487       .  S
C697        C698   1.403       .  A
C697        H706   1.084       .  S
C698        C699   1.409       .  A
C698        H707   1.081       .  S
C699        C700   1.403       .  A
C699        C702   1.487       .  S
C700        C701   1.395       .  A
C700        H708   1.084       .  S
C701        H709   1.082       .  S
C702        H710   1.088       .  S
C702        C703   1.346       .  D
C703        H711   1.084       .  S
C704        H712   1.084       .  S
C704        C705   1.349       .  D
C705        H713   1.085       .  S
C714        C715   1.404       .  A
C714        C719   1.407       .  A
C714        C722   1.487       .  S
C715        C716   1.397       .  A
C715        H724   1.084       .  S
C716        C717   1.406       .  A
C716        H725   1.081       .  S
C717        C718   1.404       .  A
C717        C720   1.485       .  S
C718        C719   1.398       .  A
C718        H726   1.084       .  S
C719        H727   1.080       .  S
C720        H728   1.083       .  S
C720        C721   1.346       .  D
C721        H729   1.085       .  S
C722        H730   1.085       .  S
C722        C723   1.348       .  D
C723        H731   1.084       .  S
C732        C733   1.405       .  A
C732        C737   1.407       .  A
C732        C740   1.485       .  S
C733        C734   1.397       .  A
C733        H742   1.084       .  S
C734        C735   1.404       .  A
C734        H743   1.082       .  S
C735        C736   1.403       .  A
C735        C738   1.479       .  S
C736        C737   1.397       .  A
C736        H744   1.084       .  S
C737        H745   1.081       .  S
C738        H746   1.088       .  S
C738        C739   1.345       .  D
C739        H747   1.085       .  S
C740        H748   1.084       .  S
C740        C741   1.348       .  D
C741        H749   1.083       .  S
C750        C751   1.400       .  A
C750        C755   1.411       .  A
C750        C758   1.489       .  S
C751        C752   1.394       .  A
C751        H760   1.083       .  S
C752        C753   1.410       .  A
C752        H761   1.081       .  S
C753        C754   1.403       .  A
C753        C756   1.491       .  S
C754        C755   1.403       .  A
C754        H762   1.083       .  S
C755        H763   1.081       .  S
C756        H764   1.086       .  S
C756        C757   1.343       .  D
C757        H765   1.082       .  S
C758        H766   1.085       .  S
C758        C759   1.343       .  D
C759        H767   1.084       .  S
C768        C769   1.402       .  A
C768        C773   1.407       .  A
C768        C776   1.483       .  S
C769        C770   1.396       .  A
C769        H778   1.083       .  S
C770        C771   1.407       .  A
C770        H779   1.082       .  S
C771        C772   1.404       .  A
C771        C774   1.487       .  S
C772        C773   1.402       .  A
C772        H780   1.083       .  S
C773        H781   1.082       .  S
C774        H782   1.087       .  S
C774        C775   1.346       .  D
C775        H783   1.085       .  S
C776        H784   1.087       .  S
C776        C777   1.345       .  D
C777        H785   1.086       .  S
C786        C787   1.404       .  A
C786        C791   1.408       .  A
C786        C794   1.492       .  S
C787        C788   1.400       .  A
C787        H796   1.083       .  S
C788        C789   1.408       .  A
C788        H797   1.082       .  S
C789        C790   1.406       .  A
C789        C792   1.494       .  S
C790        C791   1.403       .  A
C790        H798   1.083       .  S
C791        H799   1.082       .  S
C792        H800   1.085       .  S
C792        C793   1.349       .  D
C793        H801   1.085       .  S
C794        H802   1.085       .  S
C794        C795   1.350       .  D
C795        H803   1.084       .  S
C804        C805   1.402       .  A
C804        C809   1.409       .  A
C804        C812   1.491       .  S
C805        C806   1.405       .  A
C805        H814   1.083       .  S
C806        C807   1.411       .  A
C806        H815   1.082       .  S
C807        C808   1.401       .  A
C807        C810   1.490       .  S
C808        C809   1.397       .  A
C808        H816   1.084       .  S
C809        H817   1.083       .  S
C810        H818   1.085       .  S
C810        C811   1.344       .  D
C811        H819   1.087       .  S
C812        H820   1.086       .  S
C812        C813   1.344       .  D
C813        H821   1.084       .  S
C822        C823   1.402       .  A
C822        C827   1.413       .  A
C822        C830   1.495       .  S
C823        C824   1.395       .  A
C823        H832   1.083       .  S
C824        C825   1.410       .  A
C824        H833   1.082       .  S
C825        C826   1.403       .  A
C825        C828   1.494       .  S
C826        C827   1.405       .  A
C826        H834   1.083       .  S
C827        H835   1.080       .  S
C828        H836   1.086       .  S
C828        C829   1.345       .  D
C829        H837   1.083       .  S
C830        H838   1.084       .  S
C830        C831   1.345       .  D
C831        H839   1.083       .  S
