geometry optimzed in LAMMPS
_audit_creation_date              2020-12-01 
_audit_creation_method            'lammps2cif' 
_symmetry_space_group_name_H-M    'P1' 
_symmetry_Int_Tables_number       1 
_symmetry_cell_setting            triclinic 
loop_ 
_symmetry_equiv_pos_as_xyz 
  x,y,z 
_cell_length_a                    35.31756452 
_cell_length_b                    36.990688939756666 
_cell_length_c                    36.82210658485343 
_cell_angle_alpha                 90.11082793115045 
_cell_angle_beta                  90.00435395004551 
_cell_angle_gamma                 84.60112339260122 
loop_ 
_atom_site_label 
_atom_site_type_symbol 
_atom_site_fract_x 
_atom_site_fract_y 
_atom_site_fract_z 
_atom_site_charge 
C1          C  0.85501488  0.87582829  0.62232685    -0.01100
C2          C  0.49954477  0.55193494  0.62265661    -0.01100
C3          C  0.83993799  0.55569314  0.94283087    -0.01100
C4          C  0.51354425  0.87094504  0.94181478    -0.01100
C5          C  0.99487577  0.05092677  0.43297115    -0.01100
C6          C  0.02022579  0.36498321  0.11383209    -0.01100
C7          C  0.33500106  0.06281996  0.11284753    -0.01100
C8          C  0.35937055  0.37704283  0.43277866    -0.01100
Zr9        Zr  0.88301512  0.93002765  0.98094462     2.17500
O10         O  0.83320995  0.94462244  0.93602317    -0.49900
O11         O  0.88425994  0.86409298  0.97775374    -0.73100
O12         O  0.90666266  0.91979156  0.91969798    -0.79900
O13         O  0.80995436  0.94316599  0.05723781    -0.81700
O14         O  0.96636016  0.93809406  0.91594930    -0.77300
O15         O  0.81820444  0.92310819  0.99894531    -0.88900
O16         O  0.92733429  0.84007072  0.01907943    -0.74900
O17         O  0.94843045  0.90932530  0.98785892    -0.84400
O18         O  0.88941825  0.91031138  0.04223741    -0.84100
O19         O  0.91705031  0.98162714  0.96707200    -0.70800
O20         O  0.86295880  0.98231871  0.01722781    -0.83000
Zr21       Zr  0.97071279  0.99244030  0.07347617     2.26400
Zr22       Zr  0.98285997  0.96077720  0.97564341     2.06300
Zr23       Zr  0.87046811  0.96247415  0.07870169     2.10000
Zr24       Zr  0.95479344  0.88988620  0.04916815     1.78800
O25         O  0.82091626  0.00995596  0.09514554    -0.91800
O26         O  0.00835757  0.85163626  0.02387484    -0.39600
O27         O  0.93610193  0.94130627  0.08700378    -0.76200
O28         O  0.99100203  0.94020978  0.03706310    -0.94900
O29         O  0.96400766  0.01261535  0.01244534    -0.88200
O30         O  0.90533180  0.01342147  0.06645163    -0.91000
C31         C  0.90235286  0.83725829  0.99427374     1.02700
C32         C  0.79802836  0.92988624  0.02750711     1.15600
C33         C  0.93713509  0.92485604  0.90233854     1.06400
O34         O  0.03589787  0.91776603  0.95732487    -0.93200
O35         O  0.04260676  0.98275606  0.99564985    -0.88900
O36         O  0.03443829  0.00248203  0.05404121    -0.82100
C37         C  0.05428280  0.99675792  0.02510660     1.13100
O38         O  0.84864775  0.04869209  0.96073032    -0.95200
Zr39       Zr  0.89869133  0.03299626  0.00516332     1.88900
O40         O  0.96987093  0.05830217  0.07662565    -0.71800
O41         O  0.99819258  0.00675920  0.93219053    -0.51100
O42         O  0.92527185  0.06588621  0.95546440    -0.95800
O43         O  0.84528741  0.07289863  0.02869682    -0.53000
O44         O  0.92760714  0.08254626  0.03461224    -0.72300
C45         C  0.95249428  0.08520945  0.05960184     1.00000
O46         O  0.01851855  0.97551824  0.11987735    -0.61100
O47         O  0.85146522  0.92022971  0.12440521    -0.56000
O48         O  0.94767783  0.00217914  0.13491333    -0.92600
O49         O  0.88913678  0.98128176  0.13910143    -0.91100
O50         O  0.92984226  0.85514584  0.09835529    -0.91400
O51         O  0.00341020  0.87249144  0.09435323    -0.90200
C52         C  0.91808576  0.99503637  0.15264200     1.18900
H53         H  0.87357775  0.89101836  0.04730548     0.34800
H54         H  0.01750470  0.93265383  0.04164814     0.45700
H55         H  0.89803890  0.03308103  0.08309168     0.39200
H56         H  0.91251495  0.98878499  0.94214777     0.35700
H57         H  0.00518860  0.82694601  0.03304120     0.27400
H58         H  0.01635296  0.99370423  0.91511998     0.33400
H59         H  0.91899812  0.09187465  0.96141057     0.39300
H60         H  0.93830314  0.82949229  0.09260029     0.33800
H61         H  0.82653836  0.93122087  0.13332689     0.32600
H62         H  0.81268590  0.00328129  0.11974305     0.34300
H63         H  0.85152361  0.09780085  0.02296034     0.33300
H64         H  0.00816337  0.89554975  0.10644489     0.37300
H65         H  0.00659025  0.95880333  0.13640359     0.30000
H66         H  0.83355108  0.92310999  0.91991803     0.34200
H67         H  0.84989435  0.07474186  0.95521459     0.37100
H68         H  0.84544982  0.89849063  0.11062431     0.29700
H69         H  0.03851798  0.95954087  0.10738216     0.42600
H70         H  0.02425860  0.89510296  0.95164067     0.32600
H71         H  0.00283263  0.85027202  0.99757971     0.40200
H72         H  0.84731747  0.07126171  0.05545567     0.32100
H73         H  0.97469346  0.01224958  0.91778909     0.32200
H74         H  0.84256834  0.96390764  0.92076609     0.32400
Zr75       Zr  0.88201658  0.51076331  0.56339337     2.17500
O76         O  0.83398030  0.56238827  0.55766410    -0.49900
O77         O  0.88314687  0.51232202  0.62956885    -0.73100
O78         O  0.81820660  0.49479864  0.57556357    -0.79900
O79         O  0.96068355  0.57273098  0.54559092    -0.81700
O80         O  0.81275534  0.43732448  0.55537506    -0.77300
O81         O  0.90082065  0.57175607  0.56848860    -0.88900
O82         O  0.92560887  0.46656506  0.64929208    -0.74900
O83         O  0.89076801  0.44884734  0.58137056    -0.84400
O84         O  0.94755170  0.49995439  0.57883845    -0.84100
O85         O  0.86344527  0.47717605  0.51138955    -0.70800
O86         O  0.91663424  0.52346671  0.50948864    -0.83000
Zr87       Zr  0.97426270  0.41513616  0.49142198     2.26400
Zr88       Zr  0.87398561  0.41474235  0.52939840     2.06300
Zr89       Zr  0.98244311  0.51149666  0.52492579     2.10000
Zr90       Zr  0.95638855  0.43795685  0.59622846     1.78800
O91         O  0.99894665  0.55365725  0.47807753    -0.91800
O92         O  0.93700915  0.38764211  0.63222775    -0.39600
O93         O  0.99250542  0.44924723  0.54301726    -0.76200
O94         O  0.93972236  0.40214355  0.54535885    -0.94900
O95         O  0.90890525  0.42621374  0.47569147    -0.88200
O96         O  0.96534755  0.47711625  0.47356376    -0.91000
C97         C  0.90051836  0.49335614  0.65469594     1.02700
C98         C  0.93017950  0.58789874  0.56025403     1.15600
C99         C  0.79946041  0.46728264  0.57022266     1.06400
O100        O  0.85884292  0.36916252  0.57332775    -0.93200
O101        O  0.89359449  0.35475117  0.50462183    -0.88900
O102        O  0.95283659  0.35585189  0.48033076    -0.82100
C103        C  0.92324013  0.33994587  0.48827851     1.13100
O104        O  0.85006949  0.53729271  0.44776194    -0.95200
Zr105      Zr  0.89988408  0.48815480  0.45829602     1.88900
O106        O  0.97393236  0.41357653  0.42538045    -0.71800
O107        O  0.82436712  0.40023164  0.48724416    -0.51100
O108        O  0.84819182  0.46257360  0.42625720    -0.95800
O109        O  0.91972547  0.53679319  0.42017559    -0.53000
O110        O  0.92989647  0.45802146  0.40553050    -0.72300
C111        C  0.95575437  0.43182398  0.40023560     1.00000
O112        O  0.02352935  0.36553264  0.50304216    -0.61100
O113        O  0.03175116  0.52817311  0.56637752    -0.56000
O114        O  0.03811736  0.43017638  0.47826329    -0.92600
O115        O  0.04429872  0.48657355  0.50125208    -0.91100
O116        O  0.00770823  0.46189467  0.63015497    -0.91400
O117        O  0.00921700  0.39230378  0.60796226    -0.90200
C118        C  0.05738682  0.45699727  0.48536268     1.18900
H119        H  0.95405705  0.51561249  0.59845773     0.34800
H120        H  0.94490766  0.37684794  0.55167219     0.45700
H121        H  0.98130027  0.48173983  0.45310272     0.39200
H122        H  0.83690251  0.48349536  0.50590769     0.35700
H123        H  0.94896490  0.39042436  0.65626940     0.27400
H124        H  0.80689534  0.38678737  0.50195980     0.33400
H125        H  0.85265745  0.46743841  0.40025126     0.39300
H126        H  0.00302772  0.45561581  0.65578927     0.33800
H127        H  0.04066289  0.55045525  0.55579112     0.32600
H128        H  0.02241902  0.56333821  0.48706230     0.34300
H129        H  0.91244400  0.53035482  0.39518034     0.33300
H130        H  0.00934813  0.37551208  0.58698883     0.37300
H131        H  0.04160524  0.37573748  0.51991474     0.30000
H132        H  0.81960786  0.56362230  0.58081343     0.34200
H133        H  0.84291821  0.53532612  0.42188197     0.37100
H134        H  0.01810971  0.53659128  0.58877008     0.29700
H135        H  0.01133942  0.34784892  0.51823112     0.42600
H136        H  0.85139604  0.38307343  0.59560926     0.32600
H137        H  0.90949546  0.39377335  0.63664125     0.40200
H138        H  0.94785833  0.53340659  0.42018710     0.32100
H139        H  0.80972456  0.42378230  0.48192902     0.32200
H140        H  0.81579104  0.55515055  0.53916419     0.32400
Zr141      Zr  0.47019693  0.49806732  0.98111578     2.17500
O142        O  0.52058573  0.48444910  0.93644217    -0.49900
O143        O  0.46736377  0.56397735  0.97777195    -0.73100
O144        O  0.44697620  0.50792559  0.91975058    -0.79900
O145        O  0.54289469  0.48572828  0.05769278    -0.81700
O146        O  0.38781109  0.48853040  0.91537448    -0.77300
O147        O  0.53471628  0.50547353  0.99937038    -0.87300
O148        O  0.42324765  0.58764543  0.01844485    -0.74900
O149        O  0.40444679  0.51752503  0.98718475    -0.84400
O150        O  0.46230260  0.51902724  0.04199539    -0.84100
O151        O  0.43780566  0.44546128  0.96701850    -0.70800
O152        O  0.49086394  0.44694802  0.01851101    -0.83000
Zr153      Zr  0.38336661  0.43463429  0.07297755     2.26400
Zr154      Zr  0.37160907  0.46517258  0.97473648     2.06300
Zr155      Zr  0.48191754  0.46807196  0.07953621     2.10000
Zr156      Zr  0.39634290  0.53750424  0.04829765     1.78800
O157        O  0.53318032  0.42493710  0.10129272    -0.91800
O158        O  0.34182417  0.57441520  0.02315394    -0.39600
O159        O  0.41564370  0.48710212  0.08701774    -0.76200
O160        O  0.36211230  0.48591199  0.03598218    -0.94900
O161        O  0.39137327  0.41406568  0.01205284    -0.88200
O162        O  0.44929226  0.41563632  0.06685925    -0.91000
C163        C  0.44845840  0.59065163  0.99389457     1.02700
C164        C  0.55487338  0.49867392  0.02788973     1.15600
C165        C  0.41681474  0.50235530  0.90211698     1.06400
O166        O  0.31859051  0.50871692  0.95768614    -0.93200
O167        O  0.31264963  0.44125641  0.99417463    -0.88900
O168        O  0.32078539  0.42202001  0.05268544    -0.82100
C169        C  0.30116155  0.42705085  0.02356438     1.13100
O170        O  0.50939246  0.38237590  0.96305614    -0.95200
Zr171      Zr  0.45712440  0.39507082  0.00588917     1.88900
O172        O  0.38567957  0.36893265  0.07724020    -0.71800
O173        O  0.35808291  0.41984954  0.92966833    -0.51100
O174        O  0.43469690  0.35991401  0.95551763    -0.95800
O175        O  0.51014211  0.35565282  0.03066381    -0.53000
O176        O  0.42797921  0.34538957  0.03484632    -0.72300
C177        C  0.40330875  0.34232105  0.05995380     1.00000
O178        O  0.33356125  0.45117855  0.11757732    -0.61100
O179        O  0.49540155  0.51573429  0.12218938    -0.56000
O180        O  0.40626259  0.42577841  0.13456894    -0.92600
O181        O  0.46387939  0.44843004  0.13965369    -0.91100
O182        O  0.41892522  0.57150757  0.09929929    -0.91400
O183        O  0.34560108  0.55537076  0.09129666    -0.90200
C184        C  0.43535801  0.43366421  0.15268511     1.18900
H185        H  0.47752147  0.53884439  0.04696635     0.34800
H186        H  0.33540250  0.49275148  0.04020700     0.45700
H187        H  0.45697101  0.39637350  0.08371381     0.39200
H188        H  0.44284030  0.43814877  0.94215869     0.35700
H189        H  0.34517783  0.59953336  0.03102354     0.27400
H190        H  0.33850977  0.43244293  0.91371419     0.33400
H191        H  0.44240904  0.33426476  0.96183461     0.39300
H192        H  0.41138635  0.59727694  0.09336717     0.33800
H193        H  0.51458949  0.50389462  0.13901903     0.32600
H194        H  0.54590719  0.43820750  0.12044372     0.34300
H195        H  0.50509340  0.33079289  0.02330549     0.33300
H196        H  0.34147628  0.53274435  0.10441407     0.37300
H197        H  0.34503913  0.46710742  0.13528826     0.30000
H198        H  0.52076483  0.50655351  0.92131439     0.34200
H199        H  0.51025259  0.35611805  0.95747104     0.37100
H200        H  0.50948787  0.53278631  0.10796938     0.29700
H201        H  0.31458084  0.46788343  0.10465681     0.42600
H202        H  0.33053163  0.53029494  0.94906109     0.32600
H203        H  0.34647298  0.57453214  0.99665656     0.40200
H204        H  0.50642953  0.35611181  0.05730037     0.32100
H205        H  0.38120561  0.41643044  0.91437292     0.32200
H206        H  0.51126228  0.46591101  0.92014393     0.32400
Zr207      Zr  0.47185302  0.91626730  0.56214222     2.17500
O208        O  0.52002599  0.86491511  0.55543158    -0.49900
O209        O  0.47086800  0.91361964  0.62820182    -0.73100
O210        O  0.53555900  0.93229277  0.57512827    -0.79900
O211        O  0.39316092  0.85424479  0.54247356    -0.81700
O212        O  0.54070060  0.99036495  0.55677404    -0.77300
O213        O  0.45268107  0.85514659  0.56613841    -0.88900
O214        O  0.42886571  0.95961741  0.64842929    -0.74900
O215        O  0.46288775  0.97794603  0.58129652    -0.84400
O216        O  0.40637428  0.92701270  0.57762949    -0.84100
O217        O  0.49034340  0.95095671  0.51102836    -0.70800
O218        O  0.43777658  0.90413770  0.50771792    -0.83000
Zr219      Zr  0.38003132  0.01304418  0.49126648     2.26400
Zr220      Zr  0.47977359  0.01309225  0.53028094     2.06300
Zr221      Zr  0.37198496  0.91602469  0.52333173     2.10000
Zr222      Zr  0.39731836  0.98881618  0.59603389     1.78800
O223        O  0.35508748  0.87459734  0.47579367    -0.91800
O224        O  0.41748214  0.03880791  0.63220377    -0.39600
O225        O  0.36176428  0.97814545  0.54220166    -0.76200
O226        O  0.41392584  0.02534227  0.54584688    -0.94900
O227        O  0.44553449  0.00221749  0.47584939    -0.88200
O228        O  0.38905755  0.95122502  0.47259335    -0.91000
C229        C  0.45390054  0.93270605  0.65353552     1.02700
C230        C  0.42353054  0.83893086  0.55718703     1.15600
C231        C  0.55413306  0.96010044  0.57082913     1.06400
O232        O  0.49532658  0.05820468  0.57481723    -0.93200
O233        O  0.46011527  0.07394517  0.50792961    -0.88900
O234        O  0.40169458  0.07263691  0.48192460    -0.82100
C235        C  0.43078728  0.08877760  0.49116910     1.13100
O236        O  0.50695150  0.89389561  0.44615816    -0.95200
Zr237      Zr  0.45453150  0.94042998  0.45730680     1.88900
O238        O  0.38023473  0.01527852  0.42513327    -0.71800
O239        O  0.52892365  0.02738413  0.48765823    -0.51100
O240        O  0.50590216  0.96556026  0.42446487    -0.95800
O241        O  0.43525178  0.89081397  0.41991169    -0.53000
O242        O  0.42328465  0.97010432  0.40483937    -0.72300
C243        C  0.39775469  0.99664780  0.39976213     1.00000
O244        O  0.33082942  0.06278509  0.50279288    -0.61100
O245        O  0.32378660  0.89962496  0.56608381    -0.56000
O246        O  0.31608241  0.99761475  0.47861989    -0.92600
O247        O  0.31007281  0.94076796  0.50034806    -0.91100
O248        O  0.34613487  0.96494246  0.63018772    -0.91400
O249        O  0.34531096  0.03520537  0.60868143    -0.90200
C250        C  0.29690696  0.97059989  0.48517284     1.18900
H251        H  0.39981405  0.91112183  0.59693257     0.34800
H252        H  0.40857736  0.05054858  0.55262025     0.45700
H253        H  0.37312604  0.94676829  0.45206613     0.39200
H254        H  0.51694732  0.94483972  0.50565479     0.35700
H255        H  0.40695688  0.03523022  0.65671857     0.27400
H256        H  0.54674971  0.04053973  0.50229922     0.33400
H257        H  0.50167170  0.95961209  0.39863860     0.39300
H258        H  0.34966512  0.97314031  0.65547677     0.33800
H259        H  0.31082931  0.88062168  0.55342176     0.32600
H260        H  0.33224110  0.86408453  0.48513023     0.34300
H261        H  0.44109859  0.89757182  0.39465684     0.33300
H262        H  0.34557051  0.05241034  0.58813967     0.37300
H263        H  0.31202900  0.05244336  0.51872688     0.30000
H264        H  0.53388014  0.86298396  0.57885270     0.34200
H265        H  0.51144298  0.89390006  0.41961300     0.37100
H266        H  0.33804782  0.88658390  0.58600475     0.29700
H267        H  0.34269160  0.07992995  0.51895890     0.42600
H268        H  0.50298273  0.04410597  0.59687815     0.32600
H269        H  0.44526827  0.03314510  0.63515041     0.40200
H270        H  0.40713032  0.89309931  0.42105958     0.32100
H271        H  0.54323499  0.00373357  0.48200448     0.32200
H272        H  0.53859665  0.87276728  0.53765054     0.32400
C273        C  0.16919456  0.43325363  0.45959582     0.18400
C274        C  0.19720288  0.45766394  0.46094374    -0.10700
C275        C  0.23523773  0.44555848  0.45376590    -0.11500
C276        C  0.24547641  0.40898493  0.44522440     0.20000
C277        C  0.21746634  0.38461695  0.44370614    -0.13600
C278        C  0.17945321  0.39671319  0.45088132    -0.11900
C279        C  0.28481335  0.39635940  0.43910413     0.01000
C280        C  0.31821211  0.38671574  0.43541310    -0.31900
C281        C  0.13006758  0.44525888  0.46786426     0.02300
C282        C  0.09696565  0.45269636  0.47545728    -0.33500
H283        H  0.18969547  0.48592910  0.46777183     0.13400
H284        H  0.25668419  0.46462230  0.45516730     0.13200
H285        H  0.22504358  0.35626179  0.43728143     0.13100
H286        H  0.15810246  0.37753342  0.44988236     0.12100
C287        C  0.39569201  0.39931271  0.33005443     0.18400
C288        C  0.43446385  0.39639713  0.32119013    -0.10700
C289        C  0.44589786  0.40322155  0.28566749    -0.11500
C290        C  0.41855843  0.41298497  0.25901263     0.20000
C291        C  0.37983923  0.41604801  0.26797659    -0.13600
C292        C  0.36843430  0.40924643  0.30341626    -0.11900
C293        C  0.42972650  0.41976331  0.22232815     0.01000
C294        C  0.43502523  0.42590630  0.19073496    -0.31900
C295        C  0.38364582  0.39172288  0.36627766     0.02300
C296        C  0.37267362  0.38520507  0.39633286    -0.33500
H297        H  0.45575563  0.38872192  0.34164132     0.13400
H298        H  0.47590200  0.40079135  0.27898126     0.13200
H299        H  0.35848013  0.42358623  0.24753737     0.13100
H300        H  0.33840125  0.41156861  0.31000999     0.12100
C301        C  0.38992099  0.26937430  0.45409697     0.18400
C302        C  0.38477937  0.25540875  0.48888749    -0.10700
C303        C  0.39665014  0.21907854  0.49642666    -0.11500
C304        C  0.41376275  0.19658266  0.46921726     0.20000
C305        C  0.41905681  0.21059273  0.43445684    -0.13600
C306        C  0.40720633  0.24695058  0.42692240    -0.11900
C307        C  0.42402126  0.15874606  0.47653912     0.01000
C308        C  0.42941578  0.12674110  0.48295019    -0.31900
C309        C  0.37779292  0.30676389  0.44642354     0.02300
C310        C  0.36854002  0.33834765  0.44022174    -0.33500
H311        H  0.37149581  0.27254574  0.51009680     0.13400
H312        H  0.39217550  0.20845136  0.52332823     0.13200
H313        H  0.43200521  0.19336278  0.41315620     0.13100
H314        H  0.41136915  0.25752231  0.39994098     0.12100
C315        C  0.35844182  0.16802233  0.09337074     0.18400
C316        C  0.38925424  0.17435475  0.07103047    -0.10700
C317        C  0.39843555  0.20985750  0.06504278    -0.11500
C318        C  0.37685607  0.23925710  0.08133990     0.20000
C319        C  0.34586188  0.23294068  0.10346521    -0.13600
C320        C  0.33668845  0.19742401  0.10946730    -0.11900
C321        C  0.38638309  0.27582248  0.07509652     0.01000
C322        C  0.39432495  0.30626859  0.06892101    -0.31900
C323        C  0.34956540  0.13138527  0.10020036     0.02300
C324        C  0.34271421  0.10054097  0.10604210    -0.33500
H325        H  0.40627076  0.15186292  0.05840567     0.13400
H326        H  0.42238282  0.21437620  0.04779177     0.13200
H327        H  0.32887531  0.25542768  0.11612291     0.13100
H328        H  0.31278696  0.19288170  0.12676741     0.12100
C329        C  0.37096378  0.02187259  0.29399715     0.18400
C330        C  0.35508920  0.99654877  0.27159266    -0.10700
C331        C  0.34672332  0.00490833  0.23518396    -0.11500
C332        C  0.35415964  0.03864936  0.22093225     0.20000
C333        C  0.36996106  0.06397012  0.24334320    -0.13600
C334        C  0.37833671  0.05561207  0.27972043    -0.11900
C335        C  0.34617346  0.04712725  0.18327277     0.01000
C336        C  0.34042313  0.05429409  0.15160226    -0.31900
C337        C  0.37994476  0.01323285  0.33148095     0.02300
C338        C  0.38787987  0.00596641  0.36274661    -0.33500
H339        H  0.34928425  0.97034563  0.28222554     0.13400
H340        H  0.33460294  0.98505007  0.21814387     0.13200
H341        H  0.37593513  0.09010867  0.23266562     0.13100
H342        H  0.39064415  0.07541561  0.29667955     0.12100
C343        C  0.16059308  0.02552792  0.04449852     0.18400
C344        C  0.16390418  0.06060463  0.05791963    -0.10700
C345        C  0.19835643  0.06945098  0.07279425    -0.11500
C346        C  0.22966086  0.04323905  0.07436207     0.20000
C347        C  0.22652798  0.00837863  0.06037544    -0.13600
C348        C  0.19210063  0.99953212  0.04553676    -0.11900
C349        C  0.26510800  0.05190622  0.09004901     0.01000
C350        C  0.29595297  0.05766245  0.10169176    -0.31900
C351        C  0.12414662  0.01539665  0.03256109     0.02300
C352        C  0.09265327  0.00665160  0.02655492    -0.33500
H353        H  0.13967153  0.08086920  0.05752783     0.13400
H354        H  0.20045663  0.09653355  0.08338906     0.13200
H355        H  0.25057982  0.98793059  0.06130323     0.13100
H356        H  0.18984907  0.97225835  0.03552451     0.12100
C357        C  0.00053726  0.39036681  0.22165049     0.18400
C358        C  0.00458946  0.42514463  0.23545499    -0.10700
C359        C  0.99582375  0.43328857  0.27184055    -0.11500
C360        C  0.98291740  0.40671767  0.29464225     0.20000
C361        C  0.97895685  0.37193061  0.28086067    -0.13600
C362        C  0.98771651  0.36379127  0.24449256    -0.11900
C363        C  0.97345863  0.41519595  0.33202061     0.01000
C364        C  0.96535709  0.42249428  0.36322154    -0.31900
C365        C  0.00896471  0.38202190  0.18401682     0.02300
C366        C  0.01492204  0.37456083  0.15241117    -0.33500
H367        H  0.01438604  0.44596170  0.21808808     0.13400
H368        H  0.99898492  0.46029381  0.28214571     0.13200
H369        H  0.96898811  0.35115884  0.29817943     0.13100
H370        H  0.98437382  0.33683311  0.23415907     0.12100
C371        C  0.12541042  0.38339667  0.07403989     0.18400
C372        C  0.15442281  0.35546042  0.06809670    -0.10700
C373        C  0.18911243  0.36332073  0.05299744    -0.11500
C374        C  0.19487113  0.39913086  0.04364553     0.20000
C375        C  0.16564421  0.42692289  0.04912072    -0.13600
C376        C  0.13102277  0.41907956  0.06422506    -0.11900
C377        C  0.23161008  0.40795057  0.03127156     0.01000
C378        C  0.26309857  0.41645331  0.02491779    -0.31900
C379        C  0.08981001  0.37565253  0.09002108     0.02300
C380        C  0.05905431  0.37029046  0.10212839    -0.33500
H381        H  0.15037622  0.32774595  0.07547195     0.13400
H382        H  0.21161577  0.34163999  0.04921635     0.13200
H383        H  0.16986728  0.45474424  0.04232442     0.13100
H384        H  0.10877767  0.44088541  0.06858780     0.12100
C385        C  0.99829982  0.25881482  0.09692568     0.18400
C386        C  0.01911148  0.23705046  0.07128395    -0.10700
C387        C  0.00997162  0.20162675  0.06444000    -0.11500
C388        C  0.97997979  0.18773098  0.08320608     0.20000
C389        C  0.95934916  0.20944797  0.10899968    -0.13600
C390        C  0.96848789  0.24485136  0.11584164    -0.11900
C391        C  0.97013313  0.15141442  0.07572593     0.01000
C392        C  0.96192078  0.12113500  0.06888874    -0.31900
C393        C  0.00685357  0.29568561  0.10325366     0.02300
C394        C  0.01314772  0.32686510  0.10822044    -0.33500
H395        H  0.04218138  0.24753485  0.05642544     0.13400
H396        H  0.02613325  0.18516439  0.04440554     0.13200
H397        H  0.93608821  0.19909043  0.12366924     0.13100
H398        H  0.95214352  0.26141561  0.13567723     0.12100
C399        C  0.96270943  0.15881221  0.45266638     0.18400
C400        C  0.94204447  0.16929014  0.48406159    -0.10700
C401        C  0.93044933  0.20597776  0.49037440    -0.11500
C402        C  0.93937516  0.23227931  0.46524334     0.20000
C403        C  0.95977342  0.22175281  0.43373435    -0.13600
C404        C  0.97135788  0.18509832  0.42742770    -0.11900
C405        C  0.92947568  0.27019131  0.47257197     0.01000
C406        C  0.92438407  0.30218488  0.47920309    -0.31900
C407        C  0.97513873  0.12116531  0.44635059     0.02300
C408        C  0.98495934  0.08955323  0.44061269    -0.33500
H409        H  0.93517412  0.14916767  0.50373659     0.13400
H410        H  0.91493833  0.21385637  0.51496461     0.13200
H411        H  0.96707416  0.24190468  0.41427123     0.13100
H412        H  0.98728352  0.17728966  0.40305267     0.12100
C413        C  0.18487394  0.99359997  0.46022314     0.18400
C414        C  0.17580453  0.02135159  0.43491768    -0.10700
C415        C  0.13777705  0.03393282  0.42842067    -0.11500
C416        C  0.10858643  0.01886854  0.44724123     0.20000
C417        C  0.11764122  0.99102122  0.47244397    -0.13600
C418        C  0.15566782  0.97844395  0.47894510    -0.11900
C419        C  0.06937584  0.03193609  0.44093296     0.01000
C420        C  0.03603716  0.04159748  0.43668026    -0.31900
C421        C  0.22415010  0.98195032  0.46805594     0.02300
C422        C  0.25733330  0.97485429  0.47541218    -0.33500
H423        H  0.19813534  0.03346968  0.42045968     0.13400
H424        H  0.13116494  0.05548963  0.40890922     0.13200
H425        H  0.09532275  0.97918411  0.48719595     0.13100
H426        H  0.16229182  0.95716888  0.49875586     0.12100
C427        C  0.93371498  0.01414376  0.25974806     0.18400
C428        C  0.96205965  0.99066956  0.27624803    -0.10700
C429        C  0.97430219  0.99776600  0.31141872    -0.11500
C430        C  0.95828172  0.02839912  0.33023264     0.20000
C431        C  0.92962242  0.05167524  0.31392037    -0.13600
C432        C  0.91739118  0.04459092  0.27869545    -0.11900
C433        C  0.97164501  0.03619329  0.36602193     0.01000
C434        C  0.98270018  0.04280962  0.39606908    -0.31900
C435        C  0.92320893  0.00794119  0.22268172     0.02300
C436        C  0.91829625  0.00234859  0.19086175    -0.33500
H437        H  0.97506743  0.96719599  0.26172579     0.13400
H438        H  0.99649437  0.97961923  0.32377497     0.13200
H439        H  0.91706956  0.07545513  0.32825843     0.13100
H440        H  0.89566223  0.06305976  0.26608707     0.12100
C441        C  0.40341983  0.99199529  0.04980293     0.18400
C442        C  0.43652240  0.97268760  0.06317581    -0.10700
C443        C  0.45757722  0.94745236  0.04099584    -0.11500
C444        C  0.44557538  0.94141810  0.00539031     0.20000
C445        C  0.41253334  0.96076380  0.99201951    -0.13600
C446        C  0.39149792  0.98598618  0.01418005    -0.11900
C447        C  0.46757737  0.91595619  0.98238486     0.01000
C448        C  0.48730810  0.89528160  0.96346188    -0.31900
C449        C  0.38121085  0.01746543  0.07269346     0.02300
C450        C  0.36120866  0.03830879  0.09124992    -0.33500
H451        H  0.44596986  0.97707630  0.09069296     0.13400
H452        H  0.48318393  0.93271588  0.05155324     0.13200
H453        H  0.40308935  0.95639134  0.96449747     0.13100
H454        H  0.36591305  0.00072498  0.00358918     0.12100
C455        C  0.47228467  0.69411894  0.97142688     0.18400
C456        C  0.45421417  0.72261004  0.99204793    -0.10700
C457        C  0.46283234  0.75831397  0.98626683    -0.11500
C458        C  0.48958376  0.76570092  0.95982673     0.20000
C459        C  0.50782506  0.73718878  0.93938041    -0.13600
C460        C  0.49919822  0.70149125  0.94515075    -0.11900
C461        C  0.49812285  0.80248037  0.95342061     0.01000
C462        C  0.50523412  0.83329080  0.94789918    -0.31900
C463        C  0.46361877  0.65734460  0.97770427     0.02300
C464        C  0.45655419  0.62673874  0.98425410    -0.33500
H465        H  0.43349888  0.71721663  0.01256575     0.13400
H466        H  0.44860278  0.78011680  0.00231057     0.13200
H467        H  0.52861666  0.74257337  0.91893548     0.13100
H468        H  0.51349374  0.67968460  0.92916381     0.12100
C469        C  0.69009058  0.90523855  0.00774296     0.18400
C470        C  0.68695481  0.87248709  0.98923425    -0.10700
C471        C  0.65169409  0.86419758  0.97584503    -0.11500
C472        C  0.61934084  0.88864839  0.98080809     0.20000
C473        C  0.62231751  0.92114223  0.99983194    -0.13600
C474        C  0.65760789  0.92945392  0.01320178    -0.11900
C475        C  0.58328563  0.88084669  0.96579364     0.01000
C476        C  0.55244181  0.87552630  0.95383777    -0.31900
C477        C  0.72699382  0.91470183  0.01914619     0.02300
C478        C  0.75896791  0.92207215  0.02533247    -0.33500
H479        H  0.71187886  0.85363268  0.98464607     0.13400
H480        H  0.64976336  0.83899348  0.96122242     0.13200
H481        H  0.59748312  0.94025113  0.00387905     0.13100
H482        H  0.65966174  0.95494783  0.02726364     0.12100
C483        C  0.48106624  0.90960429  0.75960917     0.18400
C484        C  0.48446102  0.93825648  0.78406549    -0.10700
C485        C  0.49241708  0.93102197  0.82078650    -0.11500
C486        C  0.49705273  0.89507682  0.83328608     0.20000
C487        C  0.49401152  0.86647359  0.80875161    -0.13600
C488        C  0.48605288  0.87369874  0.77207969    -0.11900
C489        C  0.50405243  0.88738910  0.87129435     0.01000
C490        C  0.50896031  0.88012687  0.90307854    -0.31900
C491        C  0.47193212  0.91699745  0.72192068     0.02300
C492        C  0.46385551  0.92356483  0.69055283    -0.33500
H493        H  0.48068787  0.96614887  0.77481125     0.13400
H494        H  0.49465122  0.95341202  0.83943534     0.13200
H495        H  0.49749007  0.83858406  0.81803353     0.13100
H496        H  0.48352068  0.85129875  0.75351510     0.12100
C497        C  0.95047082  0.43366727  0.04991927     0.18400
C498        C  0.96768441  0.45146459  0.02164862    -0.10700
C499        C  0.94590533  0.47630638  0.99971931    -0.11500
C500        C  0.90679125  0.48352482  0.00594825     0.20000
C501        C  0.88951352  0.46556304  0.03409112    -0.13600
C502        C  0.91130565  0.44069697  0.05602901    -0.11900
C503        C  0.88444616  0.50935019  0.98352938     0.01000
C504        C  0.86515000  0.53069365  0.96490187    -0.31900
C505        C  0.97319227  0.40869136  0.07288525     0.02300
C506        C  0.99352357  0.38849861  0.09176774    -0.33500
H507        H  0.99794637  0.44626109  0.01667603     0.13400
H508        H  0.95956450  0.48996229  0.97802008     0.13200
H509        H  0.85927615  0.47086823  0.03913611     0.13100
H510        H  0.89768906  0.42711212  0.07780538     0.12100
C511        C  0.87615803  0.51799659  0.76100707     0.18400
C512        C  0.85909738  0.55221082  0.77139851    -0.10700
C513        C  0.85124842  0.55981484  0.80806264    -0.11500
C514        C  0.86040375  0.53324677  0.83455844     0.20000
C515        C  0.87754395  0.49907892  0.82417012    -0.13600
C516        C  0.88538580  0.49147735  0.78752686    -0.11900
C517        C  0.85241649  0.54102109  0.87235545     0.01000
C518        C  0.84628740  0.54746334  0.90412119    -0.31900
C519        C  0.88420108  0.51003245  0.72323513     0.02300
C520        C  0.89130432  0.50279614  0.69180362    -0.33500
H521        H  0.85185608  0.57296278  0.75118795     0.13400
H522        H  0.83805805  0.58635844  0.81573641     0.13200
H523        H  0.88482880  0.47833387  0.84438006     0.13100
H524        H  0.89861202  0.46493971  0.77987892     0.12100
C525        C  0.66248620  0.52051898  0.00453129     0.18400
C526        C  0.67081914  0.51584904  0.96749526    -0.10700
C527        C  0.70580742  0.52437317  0.95378059    -0.11500
C528        C  0.73266961  0.53767382  0.97702257     0.20000
C529        C  0.72439867  0.54231169  0.01408590    -0.13600
C530        C  0.68935958  0.53378252  0.02782009    -0.11900
C531        C  0.76906847  0.54562892  0.96309410     0.01000
C532        C  0.80047176  0.55100428  0.95273525    -0.31900
C533        C  0.62595692  0.51238692  0.01803267     0.02300
C534        C  0.59402708  0.50584122  0.02538994    -0.33500
H535        H  0.65021463  0.50569912  0.94921047     0.13400
H536        H  0.71193235  0.52052574  0.92512674     0.13200
H537        H  0.74504591  0.55243265  0.03233658     0.13100
H538        H  0.68321523  0.53759206  0.05646966     0.12100
C539        C  0.87847975  0.73354539  0.97209618     0.18400
C540        C  0.90633458  0.70485284  0.97907848    -0.10700
C541        C  0.89833362  0.66891098  0.97354508    -0.11500
C542        C  0.86241890  0.66142863  0.96102774     0.20000
C543        C  0.83455276  0.69010710  0.95400099    -0.13600
C544        C  0.84255927  0.72607092  0.95953153    -0.11900
C545        C  0.85430774  0.62438405  0.95523479     0.01000
C546        C  0.84781410  0.59331791  0.95001206    -0.31900
C547        C  0.88661529  0.77052701  0.97841465     0.02300
C548        C  0.89367411  0.80121601  0.98480630    -0.33500
H549        H  0.93417528  0.71026130  0.98888064     0.13400
H550        H  0.92011110  0.64698012  0.97904694     0.13200
H551        H  0.80668533  0.68466946  0.94429207     0.13100
H552        H  0.82075711  0.74800107  0.95411638     0.12100
C553        C  0.41158622  0.43869372  0.50696202     0.18400
C554        C  0.45059091  0.43233182  0.51412827    -0.10700
C555        C  0.46810703  0.45521282  0.53781835    -0.11500
C556        C  0.44665839  0.48449897  0.55441479     0.20000
C557        C  0.40755400  0.49053688  0.54761104    -0.13600
C558        C  0.39004527  0.46766343  0.52393214    -0.11900
C559        C  0.46480795  0.50850149  0.57815843     0.01000
C560        C  0.48025484  0.52843049  0.59810265    -0.31900
C561        C  0.39384559  0.41626670  0.48138256     0.02300
C562        C  0.37857535  0.39828742  0.45944459    -0.33500
H563        H  0.46748071  0.40998756  0.50112251     0.13400
H564        H  0.49835641  0.45027024  0.54295679     0.13200
H565        H  0.39070491  0.51305992  0.56035849     0.13100
H566        H  0.35985604  0.47278907  0.51854601     0.12100
C567        C  0.61298127  0.51902418  0.60997434     0.18400
C568        C  0.63639119  0.50524529  0.63845158    -0.10700
C569        C  0.67401955  0.49161389  0.63142010    -0.11500
C570        C  0.68825967  0.49163308  0.59588698     0.20000
C571        C  0.66483292  0.50547905  0.56750019    -0.13600
C572        C  0.62729831  0.51908741  0.57451686    -0.11900
C573        C  0.72726037  0.47892358  0.58848850     0.01000
C574        C  0.76021563  0.47128919  0.58078352    -0.31900
C575        C  0.57398113  0.53224615  0.61665253     0.02300
C576        C  0.54066531  0.54216952  0.62024067    -0.33500
H577        H  0.62556402  0.50498385  0.66596865     0.13400
H578        H  0.69198816  0.48121630  0.65361464     0.13200
H579        H  0.67563183  0.50587773  0.53997557     0.13100
H580        H  0.60941536  0.52958460  0.55229685     0.12100
C581        C  0.43267812  0.52524901  0.79603497     0.18400
C582        C  0.42971037  0.49884371  0.76911435    -0.10700
C583        C  0.44340809  0.50430404  0.73409195    -0.11500
C584        C  0.46019949  0.53616156  0.72589427     0.20000
C585        C  0.46280468  0.56271647  0.75270980    -0.13600
C586        C  0.44912728  0.55725369  0.78771659    -0.11900
C587        C  0.47483929  0.54161036  0.69006171     0.01000
C588        C  0.48657382  0.54638205  0.65985400    -0.31900
C589        C  0.42162992  0.51833658  0.83279421     0.02300
C590        C  0.41655536  0.51151756  0.86431250    -0.33500
H591        H  0.41740512  0.47383562  0.77535436     0.13400
H592        H  0.44124922  0.48358732  0.71355066     0.13200
H593        H  0.47573105  0.58743976  0.74665023     0.13100
H594        H  0.45193729  0.57768218  0.80842041     0.12100
C595        C  0.44239735  0.73048066  0.57767526     0.18400
C596        C  0.43486478  0.71644398  0.61197594    -0.10700
C597        C  0.44721387  0.68037683  0.62046116    -0.11500
C598        C  0.46728196  0.65810026  0.59475480     0.20000
C599        C  0.47437123  0.67194850  0.56025366    -0.13600
C600        C  0.46201152  0.70804810  0.55175971    -0.11900
C601        C  0.48045532  0.62113047  0.60391168     0.01000
C602        C  0.49015108  0.59004252  0.61222626    -0.31900
C603        C  0.43186336  0.76832156  0.56979606     0.02300
C604        C  0.42588994  0.80046121  0.56380712    -0.33500
H605        H  0.41990059  0.73350405  0.63230985     0.13400
H606        H  0.44141983  0.66996041  0.64716994     0.13200
H607        H  0.48971827  0.65497790  0.54008099     0.13100
H608        H  0.46817865  0.71859064  0.52519532     0.12100
C609        C  0.94105129  0.98773412  0.50428584     0.18400
C610        C  0.95433670  0.98347556  0.54000394    -0.10700
C611        C  0.93727874  0.96051973  0.56384893    -0.11500
C612        C  0.90690154  0.94173067  0.55203630     0.20000
C613        C  0.89351240  0.94610894  0.51634771    -0.13600
C614        C  0.91056883  0.96907591  0.49250068    -0.11900
C615        C  0.88939968  0.91809265  0.57655008     0.01000
C616        C  0.87432052  0.89862222  0.59717325    -0.31900
C617        C  0.95919693  0.01065242  0.47956936     0.02300
C618        C  0.97505191  0.02921044  0.45867180    -0.33500
H619        H  0.97794455  0.99774734  0.54933539     0.13400
H620        H  0.94780017  0.95735575  0.59140939     0.13200
H621        H  0.86999826  0.93173470  0.50697147     0.13100
H622        H  0.90014163  0.97215327  0.46489879     0.12100
C623        C  0.88618377  0.76852982  0.59791786     0.18400
C624        C  0.89422433  0.75746447  0.56209648    -0.10700
C625        C  0.90659113  0.72117610  0.55451390    -0.11500
C626        C  0.91108141  0.69575417  0.58271477     0.20000
C627        C  0.90316600  0.70682432  0.61856903    -0.13600
C628        C  0.89080352  0.74312609  0.62615529    -0.11900
C629        C  0.92192271  0.65806001  0.57464931     0.01000
C630        C  0.92797307  0.62611756  0.56785176    -0.31900
C631        C  0.87362831  0.80596090  0.60573115     0.02300
C632        C  0.86417399  0.83744487  0.61272042    -0.33500
H633        H  0.89082532  0.77684591  0.54004656     0.13400
H634        H  0.91234325  0.71288917  0.52666614     0.13200
H635        H  0.90624981  0.68736798  0.64057638     0.13100
H636        H  0.88474331  0.75135215  0.65396951     0.12100
C637        C  0.92256510  0.90155867  0.79587855     0.18400
C638        C  0.92753375  0.92720085  0.76874789    -0.10700
C639        C  0.91423895  0.92187712  0.73352059    -0.11500
C640        C  0.89579131  0.89094911  0.72529987     0.20000
C641        C  0.89141174  0.86499319  0.75226122    -0.13600
C642        C  0.90472536  0.87030344  0.78747614    -0.11900
C643        C  0.88079082  0.88614122  0.68943768     0.01000
C644        C  0.86845458  0.88185602  0.65932952    -0.31900
C645        C  0.93294758  0.90865604  0.83286129     0.02300
C646        C  0.93759748  0.91565816  0.86446011    -0.33500
H647        H  0.94097642  0.95161430  0.77499755     0.13400
H648        H  0.91781271  0.94210630  0.71287347     0.13200
H649        H  0.87721844  0.84096684  0.74620020     0.13100
H650        H  0.90042255  0.85043902  0.80829592     0.12100
C651        C  0.74148143  0.91024785  0.61053856     0.18400
C652        C  0.73292835  0.94277609  0.59145159    -0.10700
C653        C  0.69502117  0.95579900  0.58491974    -0.11500
C654        C  0.66544130  0.93641199  0.59752246     0.20000
C655        C  0.67399164  0.90400806  0.61678714    -0.13600
C656        C  0.71188429  0.89098130  0.62330199    -0.11900
C657        C  0.62640040  0.94872444  0.58942764     0.01000
C658        C  0.59339356  0.95612112  0.58159862    -0.31900
C659        C  0.78058796  0.89640550  0.61632429     0.02300
C660        C  0.81383727  0.88592402  0.61990824    -0.33500
H661        H  0.75555409  0.95787827  0.58134718     0.13400
H662        H  0.68880284  0.98072900  0.56976743     0.13200
H663        H  0.65137819  0.88863101  0.62643872     0.13100
H664        H  0.71809416  0.86576945  0.63798603     0.12100
loop_ 
_geom_bond_atom_site_label_1 
_geom_bond_atom_site_label_2 
_geom_bond_distance 
_geom_bond_site_symmetry_2 
_ccdc_geom_bond_type 
C1          C616   1.465       .  S
C1          C632   1.469       .  S
C1          C644   1.466       .  S
C1          C660   1.470       .  S
C2          C560   1.465       .  S
C2          C576   1.466       .  S
C2          C588   1.465       .  S
C2          C602   1.469       .  S
C3          C504   1.468       .  S
C3          C518   1.470       .  S
C3          C532   1.467       .  S
C3          C546   1.468       .  S
C4          C448   1.464       .  S
C4          C462   1.468       .  S
C4          C476   1.468       .  S
C4          C490   1.472       .  S
C5          C408   1.465       .  S
C5          C420   1.469   1_655  S
C5          C434   1.464       .  S
C5          C618   1.463       .  S
C6          C366   1.471       .  S
C6          C380   1.468       .  S
C6          C394   1.469       .  S
C6          C506   1.468   1_455  S
C7          C324   1.469       .  S
C7          C336   1.471       .  S
C7          C350   1.468       .  S
C7          C450   1.467       .  S
C8          C280   1.467       .  S
C8          C296   1.463       .  S
C8          C310   1.464       .  S
C8          C562   1.463       .  S
Zr9          O10   2.438       .  S
Zr9          O11   2.438       .  S
Zr9          O12   2.422       .  S
Zr9          O15   2.420       .  S
Zr9          O17   2.378       .  S
Zr9          O18   2.377   1_556  S
Zr9          O19   2.405       .  S
Zr9          O20   2.400   1_556  S
O10          H66   0.991       .  S
O10          H74   0.990       .  S
O11          C31   1.283       .  A
O12          C33   1.281       .  A
O13         Zr23   2.447       .  S
O13          C32   1.286       .  A
O14         Zr22   2.441       .  S
O14          C33   1.285       .  A
O15          C32   1.281   1_556  A
O16         Zr24   2.427       .  S
O16          C31   1.281   1_554  A
O17         Zr22   2.396       .  S
O17         Zr24   2.375   1_556  S
O18         Zr23   2.392       .  S
O18         Zr24   2.375       .  S
O18          H53   0.966       .  S
O19         Zr22   2.400       .  S
O19         Zr39   2.399   1_566  S
O19          H56   0.965       .  S
O20         Zr23   2.388       .  S
O20         Zr39   2.398   1_565  S
Zr21         O46   2.443   1_655  S
Zr21         O40   2.436   1_565  S
Zr21         O48   2.419   1_565  S
Zr21         O36   2.424   1_665  S
Zr21         O27   2.400       .  S
Zr21         O28   2.403       .  S
Zr21         O29   2.374   1_565  S
Zr21         O30   2.380   1_565  S
Zr22         O41   2.435   1_565  S
Zr22         O34   2.435   1_655  S
Zr22         O35   2.445   1_655  S
Zr22         O28   2.396   1_556  S
Zr22         O29   2.389   1_566  S
Zr23         O25   2.436   1_565  S
Zr23         O47   2.436       .  S
Zr23         O49   2.438       .  S
Zr23         O27   2.396       .  S
Zr23         O30   2.390   1_565  S
Zr24         O50   2.435       .  S
Zr24         O51   2.434   1_655  S
Zr24         O26   2.437   1_655  S
Zr24         O27   2.398       .  S
Zr24         O28   2.398       .  S
O25          H62   0.990       .  S
O26          H57   0.990       .  S
O26          H71   0.990   1_554  S
O28          H54   0.966   1_655  S
O29         Zr39   2.374       .  S
O30         Zr39   2.376       .  S
O30          H55   0.966       .  S
C31         C548   1.438       .  S
C32         C478   1.438       .  S
C33         C646   1.435       .  S
O34          H70   0.990       .  S
O35          C37   1.286   1_556  A
O36          C37   1.282   1_545  A
C37         C352   1.438   1_565  S
O38         Zr39   2.439   1_556  S
O38          H67   0.990       .  S
Zr39         O42   2.436   1_554  S
Zr39         O43   2.441       .  S
Zr39         O44   2.434       .  S
O40          C45   1.284       .  A
O41          H58   0.990   1_645  S
O41          H73   0.990       .  S
O42          H59   0.990       .  S
O43          H63   0.990       .  S
O43          H72   0.989       .  S
O44          C45   1.282       .  A
C45         C392   1.441       .  S
O46          H65   0.990       .  S
O46          H69   0.990       .  S
O47          H61   0.990       .  S
O47          H68   0.990       .  S
O48          C52   1.281   1_545  A
O49          C52   1.284       .  A
O50          H60   0.990       .  S
O51          H64   0.990       .  S
C52         C436   1.433   1_565  S
Zr75         O76   2.442       .  S
Zr75         O77   2.438       .  S
Zr75         O78   2.425       .  S
Zr75         O81   2.418       .  S
Zr75         O83   2.377       .  S
Zr75         O84   2.381       .  S
Zr75         O85   2.405       .  S
Zr75         O86   2.402       .  S
O76         H132   0.991       .  S
O76         H140   0.990       .  S
O77          C97   1.283       .  A
O78          C99   1.280       .  A
O79         Zr89   2.443       .  S
O79          C98   1.285       .  A
O80         Zr88   2.439       .  S
O80          C99   1.283       .  A
O81          C98   1.281       .  A
O82         Zr90   2.428       .  S
O82          C97   1.281       .  A
O83         Zr88   2.395       .  S
O83         Zr90   2.379       .  S
O84         Zr89   2.397       .  S
O84         Zr90   2.374       .  S
O84         H119   0.966       .  S
O85         Zr88   2.399       .  S
O85        Zr105   2.397       .  S
O85         H122   0.966       .  S
O86         Zr89   2.393       .  S
O86        Zr105   2.397       .  S
Zr87        O112   2.445   1_655  S
Zr87        O106   2.432       .  S
Zr87        O114   2.422   1_655  S
Zr87        O102   2.420       .  S
Zr87         O93   2.400       .  S
Zr87         O94   2.404       .  S
Zr87         O95   2.378       .  S
Zr87         O96   2.379       .  S
Zr88        O107   2.438       .  S
Zr88        O100   2.434       .  S
Zr88        O101   2.437       .  S
Zr88         O94   2.398       .  S
Zr88         O95   2.390       .  S
Zr89         O91   2.435       .  S
Zr89        O113   2.437   1_655  S
Zr89        O115   2.450   1_655  S
Zr89         O93   2.393       .  S
Zr89         O96   2.386       .  S
Zr90        O116   2.435   1_655  S
Zr90        O117   2.435   1_655  S
Zr90         O92   2.437       .  S
Zr90         O93   2.397       .  S
Zr90         O94   2.397       .  S
O91         H128   0.990   1_655  S
O92         H123   0.990       .  S
O92         H137   0.990       .  S
O94         H120   0.965       .  S
O95        Zr105   2.373       .  S
O96        Zr105   2.377       .  S
O96         H121   0.966       .  S
C97         C520   1.439       .  S
C98         C630   1.436       .  S
C99         C574   1.434       .  S
O100        H136   0.990       .  S
O101        C103   1.284       .  A
O102        C103   1.281       .  A
C103        C406   1.432       .  S
O104       Zr105   2.439       .  S
O104        H133   0.990       .  S
Zr105       O108   2.437       .  S
Zr105       O109   2.438       .  S
Zr105       O110   2.431       .  S
O106        C111   1.283       .  A
O107        H124   0.990       .  S
O107        H139   0.990       .  S
O108        H125   0.990       .  S
O109        H129   0.990       .  S
O109        H138   0.990       .  S
O110        C111   1.282       .  A
C111        C364   1.438       .  S
O112        H131   0.990       .  S
O112        H135   0.990       .  S
O113        H127   0.990       .  S
O113        H134   0.990       .  S
O114        C118   1.281       .  A
O115        C118   1.287       .  A
O116        H126   0.990       .  S
O117        H130   0.990       .  S
C118        C282   1.439       .  S
Zr141       O142   2.440       .  S
Zr141       O143   2.434       .  S
Zr141       O144   2.420       .  S
Zr141       O147   2.416       .  S
Zr141       O149   2.376       .  S
Zr141       O150   2.378   1_556  S
Zr141       O151   2.404       .  S
Zr141       O152   2.399   1_556  S
O142        H198   0.991       .  S
O142        H206   0.990       .  S
O143        C163   1.283       .  A
O144        C165   1.280       .  A
O145       Zr155   2.445       .  S
O145        C164   1.286       .  A
O146       Zr154   2.440       .  S
O146        C165   1.284       .  A
O147        C164   1.281   1_556  A
O148       Zr156   2.427       .  S
O148        C163   1.281   1_554  A
O149       Zr154   2.393       .  S
O149       Zr156   2.376   1_556  S
O150       Zr155   2.389       .  S
O150       Zr156   2.376       .  S
O150        H185   0.966       .  S
O151       Zr154   2.399       .  S
O151       Zr171   2.400   1_556  S
O151        H188   0.966       .  S
O152       Zr155   2.389       .  S
O152       Zr171   2.397       .  S
Zr153       O178   2.441       .  S
Zr153       O172   2.429       .  S
Zr153       O180   2.420       .  S
Zr153       O168   2.419       .  S
Zr153       O159   2.397       .  S
Zr153       O160   2.400       .  S
Zr153       O161   2.376       .  S
Zr153       O162   2.379       .  S
Zr154       O173   2.436       .  S
Zr154       O166   2.435       .  S
Zr154       O167   2.445       .  S
Zr154       O160   2.394   1_556  S
Zr154       O161   2.390   1_556  S
Zr155       O157   2.434       .  S
Zr155       O179   2.439       .  S
Zr155       O181   2.435       .  S
Zr155       O159   2.396       .  S
Zr155       O162   2.393       .  S
Zr156       O182   2.434       .  S
Zr156       O183   2.435       .  S
Zr156       O158   2.437       .  S
Zr156       O159   2.397       .  S
Zr156       O160   2.396       .  S
O157        H194   0.990       .  S
O158        H189   0.990       .  S
O158        H203   0.990   1_554  S
O160        H186   0.966       .  S
O161       Zr171   2.373       .  S
O162       Zr171   2.377       .  S
O162        H187   0.965       .  S
C163        C464   1.436       .  S
C164        C534   1.435       .  S
C165        C590   1.433       .  S
O166        H202   0.990       .  S
O167        C169   1.286   1_556  A
O168        C169   1.281       .  A
C169        C378   1.436       .  S
O170       Zr171   2.439   1_556  S
O170        H199   0.990       .  S
Zr171       O174   2.438   1_554  S
Zr171       O175   2.440       .  S
Zr171       O176   2.437       .  S
O172        C177   1.282       .  A
O173        H190   0.990       .  S
O173        H205   0.990       .  S
O174        H191   0.990       .  S
O175        H195   0.990       .  S
O175        H204   0.989       .  S
O176        C177   1.283       .  A
C177        C322   1.439       .  S
O178        H197   0.990       .  S
O178        H201   0.990       .  S
O179        H193   0.990       .  S
O179        H200   0.990       .  S
O180        C184   1.281       .  A
O181        C184   1.284       .  A
O182        H192   0.990       .  S
O183        H196   0.990       .  S
C184        C294   1.431       .  S
Zr207       O208   2.440       .  S
Zr207       O209   2.435       .  S
Zr207       O210   2.427       .  S
Zr207       O213   2.425       .  S
Zr207       O215   2.379       .  S
Zr207       O216   2.379       .  S
Zr207       O217   2.405       .  S
Zr207       O218   2.401       .  S
O208        H264   0.991       .  S
O208        H272   0.990       .  S
O209        C229   1.283       .  A
O210        C231   1.281       .  A
O211       Zr221   2.442       .  S
O211        C230   1.285       .  A
O212       Zr220   2.439   1_565  S
O212        C231   1.284       .  A
O213        C230   1.282       .  A
O214       Zr222   2.431       .  S
O214        C229   1.282       .  A
O215       Zr220   2.394   1_565  S
O215       Zr222   2.375       .  S
O216       Zr221   2.393       .  S
O216       Zr222   2.376       .  S
O216        H251   0.965       .  S
O217       Zr220   2.399   1_565  S
O217       Zr237   2.399       .  S
O217        H254   0.966       .  S
O218       Zr221   2.394       .  S
O218       Zr237   2.399       .  S
Zr219       O244   2.446       .  S
Zr219       O238   2.437       .  S
Zr219       O246   2.426   1_545  S
Zr219       O234   2.426       .  S
Zr219       O225   2.401   1_545  S
Zr219       O226   2.404       .  S
Zr219       O227   2.379       .  S
Zr219       O228   2.379   1_545  S
Zr220       O239   2.436       .  S
Zr220       O232   2.437       .  S
Zr220       O233   2.437       .  S
Zr220       O226   2.396       .  S
Zr220       O227   2.394       .  S
Zr221       O223   2.435       .  S
Zr221       O245   2.438       .  S
Zr221       O247   2.442       .  S
Zr221       O225   2.394       .  S
Zr221       O228   2.389       .  S
Zr222       O248   2.436       .  S
Zr222       O249   2.437   1_565  S
Zr222       O224   2.437   1_565  S
Zr222       O225   2.398       .  S
Zr222       O226   2.397   1_565  S
O223        H260   0.990       .  S
O224        H255   0.990       .  S
O224        H269   0.990       .  S
O226        H252   0.966       .  S
O227       Zr237   2.377   1_545  S
O228       Zr237   2.377       .  S
O228        H253   0.965       .  S
C229        C492   1.441       .  S
C230        C604   1.439       .  S
C231        C658   1.436       .  S
O232        H268   0.990       .  S
O233        C235   1.284       .  A
O234        C235   1.282       .  A
C235        C308   1.433       .  S
O236       Zr237   2.441       .  S
O236        H265   0.990       .  S
Zr237       O240   2.437       .  S
Zr237       O241   2.440       .  S
Zr237       O242   2.436       .  S
O238        C243   1.284   1_545  A
O239        H256   0.990       .  S
O239        H271   0.990       .  S
O240        H257   0.990       .  S
O241        H261   0.990       .  S
O241        H270   0.990       .  S
O242        C243   1.283       .  A
C243        C338   1.441   1_565  S
O244        H263   0.990       .  S
O244        H267   0.990       .  S
O245        H259   0.990       .  S
O245        H266   0.990       .  S
O246        C250   1.282       .  A
O247        C250   1.285       .  A
O248        H258   0.990       .  S
O249        H262   0.990       .  S
C250        C422   1.437       .  S
C273        C281   1.443       .  S
C273        C274   1.401       .  A
C273        C278   1.403       .  A
C274        C275   1.400       .  A
C274        H283   1.083       .  S
C275        C276   1.402       .  A
C275        H284   1.084       .  S
C276        C279   1.441       .  S
C276        C277   1.401       .  A
C277        C278   1.400       .  A
C277        H285   1.083       .  S
C278        H286   1.083       .  S
C279        C280   1.207       .  T
C281        C282   1.208       .  T
C287        C295   1.436       .  S
C287        C288   1.402       .  A
C287        C292   1.399       .  A
C288        C289   1.399       .  A
C288        H297   1.083       .  S
C289        C290   1.401       .  A
C289        H298   1.083       .  S
C290        C293   1.436       .  S
C290        C291   1.401       .  A
C291        C292   1.396       .  A
C291        H299   1.084       .  S
C292        H300   1.084       .  S
C293        C294   1.204       .  T
C295        C296   1.205       .  T
C301        C309   1.437       .  S
C301        C302   1.400       .  A
C301        C306   1.401       .  A
C302        C303   1.398       .  A
C302        H311   1.084       .  S
C303        C304   1.401       .  A
C303        H312   1.083       .  S
C304        C307   1.438       .  S
C304        C305   1.401       .  A
C305        C306   1.399       .  A
C305        H313   1.083       .  S
C306        H314   1.083       .  S
C307        C308   1.205       .  T
C309        C310   1.205       .  T
C315        C323   1.442       .  S
C315        C316   1.402       .  A
C315        C320   1.402       .  A
C316        C317   1.400       .  A
C316        H325   1.083       .  S
C317        C318   1.402       .  A
C317        H326   1.083       .  S
C318        C321   1.443       .  S
C318        C319   1.402       .  A
C319        C320   1.400       .  A
C319        H327   1.083       .  S
C320        H328   1.083       .  S
C321        C322   1.208       .  T
C323        C324   1.208       .  T
C329        C337   1.446       .  S
C329        C330   1.403   1_545  A
C329        C334   1.402       .  A
C330        C331   1.402   1_565  A
C330        H339   1.083       .  S
C331        C332   1.402       .  A
C331        H340   1.083   1_545  S
C332        C335   1.444       .  S
C332        C333   1.402       .  A
C333        C334   1.401       .  A
C333        H341   1.083       .  S
C334        H342   1.083       .  S
C335        C336   1.209       .  T
C337        C338   1.210       .  T
C343        C351   1.442       .  S
C343        C344   1.403       .  A
C343        C348   1.401   1_545  A
C344        C345   1.401       .  A
C344        H353   1.083       .  S
C345        C346   1.402       .  A
C345        H354   1.083       .  S
C346        C349   1.442       .  S
C346        C347   1.402       .  A
C347        C348   1.399   1_545  A
C347        H355   1.084   1_545  S
C348        H356   1.083       .  S
C349        C350   1.208       .  T
C351        C352   1.208       .  T
C357        C365   1.444       .  S
C357        C358   1.402       .  A
C357        C362   1.402   1_455  A
C358        C359   1.401   1_455  A
C358        H367   1.083       .  S
C359        C360   1.402       .  A
C359        H368   1.083       .  S
C360        C363   1.443       .  S
C360        C361   1.402       .  A
C361        C362   1.400       .  A
C361        H369   1.083       .  S
C362        H370   1.083       .  S
C363        C364   1.208       .  T
C365        C366   1.209       .  T
C371        C379   1.441       .  S
C371        C372   1.402       .  A
C371        C376   1.401       .  A
C372        C373   1.401       .  A
C372        H381   1.083       .  S
C373        C374   1.403       .  A
C373        H382   1.083       .  S
C374        C377   1.442       .  S
C374        C375   1.401       .  A
C375        C376   1.399       .  A
C375        H383   1.083       .  S
C376        H384   1.083       .  S
C377        C378   1.207       .  T
C379        C380   1.208       .  T
C385        C393   1.443   1_655  S
C385        C386   1.402   1_655  A
C385        C390   1.402       .  A
C386        C387   1.401       .  A
C386        H395   1.083       .  S
C387        C388   1.403   1_455  A
C387        H396   1.083       .  S
C388        C391   1.445       .  S
C388        C389   1.402       .  A
C389        C390   1.400       .  A
C389        H397   1.083       .  S
C390        H398   1.083       .  S
C391        C392   1.209       .  T
C393        C394   1.209       .  T
C399        C407   1.439       .  S
C399        C400   1.402       .  A
C399        C404   1.401       .  A
C400        C401   1.399       .  A
C400        H409   1.083       .  S
C401        C402   1.401       .  A
C401        H410   1.083       .  S
C402        C405   1.438       .  S
C402        C403   1.401       .  A
C403        C404   1.398       .  A
C403        H411   1.084       .  S
C404        H412   1.083       .  S
C405        C406   1.205       .  T
C407        C408   1.206       .  T
C413        C421   1.443       .  S
C413        C414   1.402   1_565  A
C413        C418   1.401       .  A
C414        C415   1.400       .  A
C414        H423   1.083       .  S
C415        C416   1.401       .  A
C415        H424   1.083       .  S
C416        C419   1.442       .  S
C416        C417   1.402   1_545  A
C417        C418   1.400       .  A
C417        H425   1.084       .  S
C418        H426   1.083       .  S
C419        C420   1.208       .  T
C421        C422   1.208       .  T
C427        C435   1.438       .  S
C427        C428   1.401   1_545  A
C427        C432   1.401       .  A
C428        C429   1.397       .  A
C428        H437   1.084       .  S
C429        C430   1.400   1_565  A
C429        H438   1.084       .  S
C430        C433   1.438       .  S
C430        C431   1.402       .  A
C431        C432   1.399       .  A
C431        H439   1.083       .  S
C432        H440   1.083       .  S
C433        C434   1.206       .  T
C435        C436   1.205       .  T
C441        C449   1.439   1_565  S
C441        C442   1.401       .  A
C441        C446   1.401       .  A
C442        C443   1.399       .  A
C442        H451   1.083       .  S
C443        C444   1.402       .  A
C443        H452   1.084       .  S
C444        C447   1.438   1_554  S
C444        C445   1.400   1_554  A
C445        C446   1.398   1_556  A
C445        H453   1.083       .  S
C446        H454   1.083   1_565  S
C447        C448   1.206       .  T
C449        C450   1.207       .  T
C455        C463   1.441       .  S
C455        C456   1.402       .  A
C455        C460   1.401       .  A
C456        C457   1.400       .  A
C456        H465   1.084   1_556  S
C457        C458   1.402       .  A
C457        H466   1.083   1_556  S
C458        C461   1.441       .  S
C458        C459   1.401       .  A
C459        C460   1.399       .  A
C459        H467   1.083       .  S
C460        H468   1.083       .  S
C461        C462   1.208       .  T
C463        C464   1.207       .  T
C469        C477   1.443       .  S
C469        C470   1.402   1_554  A
C469        C474   1.402       .  A
C470        C471   1.400       .  A
C470        H479   1.083       .  S
C471        C472   1.401       .  A
C471        H480   1.083       .  S
C472        C475   1.442       .  S
C472        C473   1.402       .  A
C473        C474   1.401   1_556  A
C473        H481   1.084   1_556  S
C474        H482   1.083       .  S
C475        C476   1.208       .  T
C477        C478   1.208       .  T
C483        C491   1.446       .  S
C483        C484   1.403       .  A
C483        C488   1.402       .  A
C484        C485   1.402       .  A
C484        H493   1.083       .  S
C485        C486   1.403       .  A
C485        H494   1.083       .  S
C486        C489   1.445       .  S
C486        C487   1.402       .  A
C487        C488   1.400       .  A
C487        H495   1.083       .  S
C488        H496   1.083       .  S
C489        C490   1.210       .  T
C491        C492   1.209       .  T
C497        C505   1.441       .  S
C497        C498   1.402       .  A
C497        C502   1.401       .  A
C498        C499   1.399   1_554  A
C498        H507   1.084       .  S
C499        C500   1.401   1_556  A
C499        H508   1.083       .  S
C500        C503   1.442   1_554  S
C500        C501   1.402       .  A
C501        C502   1.400       .  A
C501        H509   1.083       .  S
C502        H510   1.083       .  S
C503        C504   1.208       .  T
C505        C506   1.207       .  T
C511        C519   1.444       .  S
C511        C512   1.402       .  A
C511        C516   1.402       .  A
C512        C513   1.401       .  A
C512        H521   1.083       .  S
C513        C514   1.402       .  A
C513        H522   1.083       .  S
C514        C517   1.443       .  S
C514        C515   1.402       .  A
C515        C516   1.400       .  A
C515        H523   1.083       .  S
C516        H524   1.083       .  S
C517        C518   1.209       .  T
C519        C520   1.208       .  T
C525        C533   1.441       .  S
C525        C526   1.402   1_554  A
C525        C530   1.401       .  A
C526        C527   1.398       .  A
C526        H535   1.084       .  S
C527        C528   1.400       .  A
C527        H536   1.083       .  S
C528        C531   1.440       .  S
C528        C529   1.403   1_556  A
C529        C530   1.400       .  A
C529        H537   1.083       .  S
C530        H538   1.083       .  S
C531        C532   1.207       .  T
C533        C534   1.206       .  T
C539        C547   1.442       .  S
C539        C540   1.402       .  A
C539        C544   1.402       .  A
C540        C541   1.400       .  A
C540        H549   1.083       .  S
C541        C542   1.401       .  A
C541        H550   1.083       .  S
C542        C545   1.442       .  S
C542        C543   1.402       .  A
C543        C544   1.400       .  A
C543        H551   1.083       .  S
C544        H552   1.083       .  S
C545        C546   1.208       .  T
C547        C548   1.208       .  T
C553        C561   1.436       .  S
C553        C554   1.401       .  A
C553        C558   1.401       .  A
C554        C555   1.398       .  A
C554        H563   1.084       .  S
C555        C556   1.401       .  A
C555        H564   1.083       .  S
C556        C559   1.438       .  S
C556        C557   1.401       .  A
C557        C558   1.398       .  A
C557        H565   1.083       .  S
C558        H566   1.084       .  S
C559        C560   1.206       .  T
C561        C562   1.205       .  T
C567        C575   1.439       .  S
C567        C568   1.402       .  A
C567        C572   1.400       .  A
C568        C569   1.400       .  A
C568        H577   1.083       .  S
C569        C570   1.402       .  A
C569        H578   1.083       .  S
C570        C573   1.439       .  S
C570        C571   1.401       .  A
C571        C572   1.397       .  A
C571        H579   1.084       .  S
C572        H580   1.084       .  S
C573        C574   1.205       .  T
C575        C576   1.206       .  T
C581        C589   1.439       .  S
C581        C582   1.401       .  A
C581        C586   1.401       .  A
C582        C583   1.399       .  A
C582        H591   1.083       .  S
C583        C584   1.402       .  A
C583        H592   1.083       .  S
C584        C587   1.439       .  S
C584        C585   1.401       .  A
C585        C586   1.398       .  A
C585        H593   1.083       .  S
C586        H594   1.083       .  S
C587        C588   1.206       .  T
C589        C590   1.205       .  T
C595        C603   1.444       .  S
C595        C596   1.401       .  A
C595        C600   1.403       .  A
C596        C597   1.400       .  A
C596        H605   1.083       .  S
C597        C598   1.402       .  A
C597        H606   1.083       .  S
C598        C601   1.443       .  S
C598        C599   1.402       .  A
C599        C600   1.401       .  A
C599        H607   1.083       .  S
C600        H608   1.083       .  S
C601        C602   1.209       .  T
C603        C604   1.208       .  T
C609        C617   1.436   1_565  S
C609        C610   1.401       .  A
C609        C614   1.401       .  A
C610        C611   1.398       .  A
C610        H619   1.084       .  S
C611        C612   1.401       .  A
C611        H620   1.083       .  S
C612        C615   1.437       .  S
C612        C613   1.401       .  A
C613        C614   1.398       .  A
C613        H621   1.083       .  S
C614        H622   1.084       .  S
C615        C616   1.206       .  T
C617        C618   1.205       .  T
C623        C631   1.442       .  S
C623        C624   1.401       .  A
C623        C628   1.402       .  A
C624        C625   1.400       .  A
C624        H633   1.083       .  S
C625        C626   1.401       .  A
C625        H634   1.083       .  S
C626        C629   1.441       .  S
C626        C627   1.402       .  A
C627        C628   1.400       .  A
C627        H635   1.084       .  S
C628        H636   1.083       .  S
C629        C630   1.207       .  T
C631        C632   1.208       .  T
C637        C645   1.440       .  S
C637        C638   1.401       .  A
C637        C642   1.402       .  A
C638        C639   1.399       .  A
C638        H647   1.083       .  S
C639        C640   1.401       .  A
C639        H648   1.083       .  S
C640        C643   1.440       .  S
C640        C641   1.401       .  A
C641        C642   1.399       .  A
C641        H649   1.084       .  S
C642        H650   1.083       .  S
C643        C644   1.207       .  T
C645        C646   1.206       .  T
C651        C659   1.443       .  S
C651        C652   1.403       .  A
C651        C656   1.401       .  A
C652        C653   1.400       .  A
C652        H661   1.083       .  S
C653        C654   1.401       .  A
C653        H662   1.083       .  S
C654        C657   1.442       .  S
C654        C655   1.402       .  A
C655        C656   1.400       .  A
C655        H663   1.084       .  S
C656        H664   1.083       .  S
C657        C658   1.207       .  T
C659        C660   1.209       .  T
