geometry optimzed in LAMMPS
_audit_creation_date              2020-12-01 
_audit_creation_method            'lammps2cif' 
_symmetry_space_group_name_H-M    'P1' 
_symmetry_Int_Tables_number       1 
_symmetry_cell_setting            triclinic 
loop_ 
_symmetry_equiv_pos_as_xyz 
  x,y,z 
_cell_length_a                    52.76609281 
_cell_length_b                    52.76885520042122 
_cell_length_c                    35.26700558120994 
_cell_angle_alpha                 90.00788131325675 
_cell_angle_beta                  89.99200793290093 
_cell_angle_gamma                 119.99901285689519 
loop_ 
_atom_site_label 
_atom_site_type_symbol 
_atom_site_fract_x 
_atom_site_fract_y 
_atom_site_fract_z 
_atom_site_charge 
C1          C  0.24818913  0.35238983  0.06654356     0.79700
N2          N  0.24562400  0.37346299  0.04778382    -0.78600
C3          C  0.24823935  0.39702371  0.06683682     0.82100
N4          N  0.25232022  0.39891970  0.10499330    -0.78600
C5          C  0.25391393  0.37743015  0.12418224     0.82200
N6          N  0.25229816  0.35440799  0.10473155    -0.80300
C7          C  0.24793533  0.35213965  0.22340561     0.79700
N8          N  0.24564088  0.37328782  0.24237230    -0.78600
C9          C  0.24854094  0.39702380  0.22352892     0.82100
N10         N  0.25261932  0.39900924  0.18534630    -0.78600
C11         C  0.25390664  0.37739856  0.16596846     0.82200
N12         N  0.25200073  0.35420751  0.18523704    -0.80300
C13         C  0.13424123  0.39710425  0.22316395     0.79700
N14         N  0.13204951  0.39922584  0.18501300    -0.78600
C15         C  0.10891797  0.37787739  0.16566841     0.82100
N16         N  0.08746340  0.35481112  0.18498122    -0.78600
C17         C  0.08952094  0.35260863  0.22313424     0.82200
N18         N  0.11321344  0.37349595  0.24202802    -0.80300
C19         C  0.13408753  0.39728792  0.06631901     0.79700
N20         N  0.13189295  0.39939010  0.10446956    -0.78600
C21         C  0.10890724  0.37788431  0.12383238     0.82100
N22         N  0.08761606  0.35468236  0.10453918    -0.78600
C23         C  0.08968301  0.35249185  0.06638931     0.82200
N24         N  0.11322955  0.37355482  0.04746447    -0.80300
C25         C  0.08966895  0.23841705  0.06620353     0.79700
N26         N  0.08775421  0.23452468  0.10442728    -0.78600
C27         C  0.10920803  0.23295064  0.12381676     0.82100
N28         N  0.13218634  0.23439210  0.10450885    -0.78600
C29         C  0.13419555  0.23827230  0.06630032     0.82200
N30         N  0.11320697  0.24084997  0.04732241    -0.80300
C31         C  0.08975454  0.23887033  0.22303623     0.79700
N32         N  0.11317825  0.24116853  0.24208528    -0.78600
C33         C  0.13408108  0.23829497  0.22332828     0.82100
N34         N  0.13207599  0.23427807  0.18511423    -0.78600
C35         C  0.10921385  0.23301709  0.16564423     0.82200
N36         N  0.08786091  0.23486104  0.18485717    -0.80300
C37         C  0.39141732  0.14027894  0.22242896     0.79700
N38         N  0.39364239  0.13788949  0.18441409    -0.78600
C39         C  0.37233253  0.11467613  0.16527287     0.82100
N40         N  0.34917655  0.09335345  0.18454233    -0.78600
C41         C  0.34679837  0.09562297  0.22256132     0.82200
N42         N  0.36769808  0.11939886  0.24135209    -0.80300
C43         C  0.39116824  0.13982880  0.06622128     0.79700
N44         N  0.36745737  0.11878188  0.04754292    -0.78600
C45         C  0.34673476  0.09510529  0.06664342     0.82100
N46         N  0.34921183  0.09305527  0.10464845    -0.78600
C47         C  0.37233499  0.11454124  0.12367793     0.82200
N48         N  0.39351975  0.13769052  0.10427350    -0.80300
C49         C  0.34689385  0.25296136  0.06669197     0.79700
N50         N  0.36777014  0.25007343  0.04785589    -0.78600
C51         C  0.39128105  0.25250313  0.06684834     0.82100
N52         N  0.39331560  0.25676193  0.10492722    -0.78600
C53         C  0.37201863  0.25868965  0.12408482     0.82200
N54         N  0.34905561  0.25722497  0.10478200    -0.80300
C55         C  0.34655792  0.25241464  0.22295920     0.79700
N56         N  0.36750521  0.24970946  0.24186013    -0.78600
C57         C  0.39116791  0.25244225  0.22295078     0.82100
N58         N  0.39329269  0.25681877  0.18489694    -0.78600
C59         C  0.37192989  0.25857361  0.16567781     0.82200
N60         N  0.34879987  0.25679998  0.18489902    -0.80300
C61         C  0.23444620  0.09526697  0.22273939     0.79700
N62         N  0.23710794  0.11891361  0.24165245    -0.78600
C63         C  0.23425841  0.13980414  0.22280543     0.82100
N64         N  0.22977833  0.13748799  0.18474628    -0.78600
C65         C  0.22811094  0.11440061  0.16548829     0.82200
N66         N  0.23001813  0.09310715  0.18468393    -0.80300
C67         C  0.23418981  0.09524546  0.06650857     0.79700
N68         N  0.23678331  0.11886197  0.04764467    -0.78600
C69         C  0.23397358  0.13972569  0.06660492     0.82100
N70         N  0.22963297  0.13743730  0.10467541    -0.78600
C71         C  0.22802450  0.11437258  0.12386767     0.82200
N72         N  0.22987075  0.09307905  0.10458536    -0.80300
O73         O  0.26509180  0.31946204  0.05521060    -0.75900
O74         O  0.22735833  0.31585036  0.01936362    -0.54800
C75         C  0.24674317  0.32765116  0.04565793     0.77900
O76         O  0.31305770  0.26872582  0.23320311    -0.60500
O77         O  0.31069372  0.23225709  0.27063710    -0.53500
C78         C  0.32179704  0.25095159  0.24355116     0.69900
O79         O  0.26458840  0.31897753  0.23411758    -0.75000
O80         O  0.22733626  0.31583818  0.27068103    -0.55600
C81         C  0.24646788  0.32738205  0.24408447     0.75900
O82         O  0.31339167  0.26930261  0.05628932    -0.60200
O83         O  0.31090163  0.23265608  0.01911237    -0.53300
C84         C  0.32210942  0.25148449  0.04606056     0.72500
Zr85       Zr  0.27844852  0.28357025  0.03415936     2.54700
O86         O  0.32445234  0.32943622  0.02761797    -0.80700
O87         O  0.28078221  0.28568229  0.10300276    -0.94100
Zr88       Zr  0.27813132  0.28316785  0.25491961     2.64700
O89         O  0.32457891  0.32896531  0.25869105    -0.99100
O90         O  0.27769081  0.28309305  0.18603981    -0.81200
O91         O  0.26460672  0.29817797  0.31117952    -0.84500
O92         O  0.29311477  0.26983400  0.31125723    -2.19200
O93         O  0.21793999  0.17352296  0.05684102    -0.67900
O94         O  0.25397508  0.17555258  0.01880277    -0.52500
C95         C  0.23546245  0.16455943  0.04612078     0.70900
O96         O  0.16711286  0.22137118  0.23458386    -0.60800
O97         O  0.17038762  0.25886032  0.27069668    -0.52800
C98         C  0.15875957  0.23960253  0.24425035     0.72700
O99         O  0.21751224  0.17296925  0.23370302    -0.72200
O100        O  0.25475680  0.17610118  0.27013812    -0.50900
C101        C  0.23569754  0.16460396  0.24348734     0.74100
O102        O  0.16741933  0.22163881  0.05566560    -0.67500
O103        O  0.17043086  0.25876544  0.01901572    -0.54700
C104        C  0.15893246  0.23967211  0.04563854     0.72400
Zr105      Zr  0.20340596  0.20835339  0.03492182     2.77500
O106        O  0.15744823  0.16205241  0.03190701    -0.98300
O107        O  0.20247875  0.20917656  0.10377111    -0.79100
Zr108      Zr  0.20306250  0.20795029  0.25554304     2.70100
O109        O  0.15763907  0.16144666  0.26092476    -0.80400
O110        O  0.20024084  0.20626820  0.18674889    -0.99400
Zr111      Zr  0.21253727  0.27376641  0.31154513     2.21500
Zr112      Zr  0.26885101  0.21772233  0.31157622     2.11100
O113        O  0.21672927  0.19332376  0.31188889    -2.48100
O114        O  0.18830783  0.22165561  0.31187763    -0.80100
O115        O  0.25521179  0.23175848  0.03547876    -0.72300
O116        O  0.22639512  0.25968945  0.25441558    -2.33300
O117        O  0.22671313  0.26008203  0.03532421    -2.29500
O118        O  0.25486658  0.23138781  0.25438806    -0.74100
H119        H  0.31410293  0.27817096  0.31125198     0.77900
H120        H  0.22005831  0.26585683  0.23234193     0.79000
H121        H  0.20844563  0.17234233  0.31188858     0.81200
H122        H  0.22048415  0.26643495  0.05732332     0.78800
H123        H  0.26762818  0.26209996  0.17911478     0.41900
H124        H  0.21987653  0.21041824  0.17844096     0.40800
H125        H  0.14566688  0.16530516  0.27910882     0.40500
H126        H  0.16184516  0.14904699  0.01647396     0.38400
H127        H  0.21604037  0.22988482  0.11049601     0.41600
H128        H  0.26200150  0.28396326  0.11102801     0.36400
H129        H  0.31966321  0.34173319  0.01129138     0.42500
H130        H  0.33777378  0.32408138  0.27285940     0.38900
H131        H  0.15459807  0.15401834  0.05792152     0.43800
H132        H  0.29571843  0.30616338  0.10889403     0.42500
H133        H  0.33223494  0.33257630  0.23242965     0.42700
H134        H  0.18711147  0.18534711  0.18061789     0.43000
O135        O  0.03965142  0.31967570  0.23445707    -0.75900
O136        O  0.07386063  0.31597474  0.27001037    -0.54800
C137        C  0.06621437  0.32781879  0.24387304     0.77900
O138        O  0.44112251  0.26887091  0.05649019    -0.60500
O139        O  0.40700510  0.23213440  0.01938127    -0.53500
C140        C  0.41459095  0.25096179  0.04631626     0.69900
O141        O  0.03985583  0.31893154  0.05587462    -0.75000
O142        O  0.07401781  0.31633948  0.01879032    -0.55600
C143        C  0.06640577  0.32763783  0.04568513     0.75900
O144        O  0.44101496  0.26880674  0.23313029    -0.60200
O145        O  0.40697358  0.23240018  0.27066659    -0.53300
C146        C  0.41451083  0.25103898  0.24352748     0.72500
Zr147      Zr  0.49036236  0.28352862  0.25523103     2.54700
O148        O  0.48919469  0.32889122  0.26108831    -0.80700
O149        O  0.49055716  0.28581198  0.18637189    -0.94100
Zr150      Zr  0.49048981  0.28340339  0.03455600     2.64700
O151        O  0.49044811  0.32942933  0.02991852    -0.99100
O152        O  0.49080389  0.28460655  0.10338844    -0.81200
O153        O  0.01888728  0.29835945  0.31152051    -0.84500
O154        O  0.46208065  0.26992345  0.31158015    -2.19200
O155        O  0.44127940  0.17380566  0.23271229    -0.67900
O156        O  0.40715820  0.17613495  0.27014527    -0.52500
C157        C  0.41474852  0.16506367  0.24301357     0.70900
O158        O  0.03978213  0.22156317  0.05503807    -0.60800
O159        O  0.07395933  0.25924837  0.01911226    -0.52800
C160        C  0.06634436  0.23986856  0.04541144     0.72700
O161        O  0.44090964  0.17319311  0.05543323    -0.72200
O162        O  0.40668460  0.17585287  0.01865833    -0.50900
C163        C  0.41435116  0.16457794  0.04544076     0.74100
O164        O  0.03986080  0.22212538  0.23380255    -0.67500
O165        O  0.07396316  0.25940170  0.27029206    -0.54700
C166        C  0.06639481  0.24028865  0.24368545     0.72400
Zr167      Zr  0.49056331  0.20855560  0.25495354     2.77500
O168        O  0.49000713  0.16214296  0.25741228    -0.98300
O169        O  0.49160157  0.20948608  0.18617173    -0.79100
Zr170      Zr  0.49045917  0.20835826  0.03434880     2.70100
O171        O  0.48919031  0.16172616  0.02985226    -0.80400
O172        O  0.49159595  0.20775451  0.10323627    -0.99400
Zr173      Zr  0.04674262  0.27411960  0.31139400     2.21500
Zr174      Zr  0.43435962  0.21782691  0.31141350     2.11100
O175        O  0.46222986  0.19358367  0.31130921    -2.48100
O176        O  0.01896434  0.22200787  0.31135803    -0.80100
O177        O  0.46197343  0.23173140  0.25417669    -0.72300
O178        O  0.01886207  0.26007024  0.03522404    -2.33300
O179        O  0.01881974  0.26025612  0.25428970    -2.29500
O180        O  0.46194570  0.23161215  0.03537111    -0.74100
H181        H  0.44936208  0.27818200  0.31158170     0.77900
H182        H  0.03137748  0.26626368  0.05728802     0.79000
H183        H  0.44958925  0.17259333  0.31128317     0.81200
H184        H  0.03133485  0.26656630  0.23222627     0.77900
H185        H  0.98613826  0.26462984  0.11085116     0.41900
H186        H  0.47435041  0.20919552  0.11112783     0.40800
H187        H  0.00540967  0.16554154  0.01238224     0.40500
H188        H  0.47200466  0.14880656  0.27162285     0.38400
H189        H  0.48958588  0.22662777  0.17955157     0.41600
H190        H  0.00696812  0.28292183  0.17855796     0.36400
H191        H  0.00656704  0.34176337  0.27664466     0.42500
H192        H  0.47307165  0.32488841  0.01434640     0.38900
H193        H  0.48582347  0.15476862  0.23102029     0.43800
H194        H  0.49730741  0.30658014  0.18048297     0.42500
H195        H  0.48528836  0.33271388  0.05573542     0.42700
H196        H  0.48648460  0.18749347  0.10976540     0.43000
O197        O  0.26543048  0.44690711  0.23467635    -0.75900
O198        O  0.22788657  0.41270135  0.27074316    -0.54800
C199        C  0.24717574  0.42035167  0.24433690     0.77900
O200        O  0.31313733  0.04529762  0.05680704    -0.60500
O201        O  0.31071663  0.07933986  0.01931407    -0.53500
C202        C  0.32187473  0.07177765  0.04634607     0.69900
O203        O  0.26476882  0.44690934  0.05632156    -0.75000
O204        O  0.22773293  0.41277404  0.01955251    -0.55600
C205        C  0.24677226  0.42037483  0.04626461     0.75900
O206        O  0.31341800  0.04568460  0.23317615    -0.60200
O207        O  0.31082077  0.07977385  0.27034489    -0.53300
C208        C  0.32202806  0.07223791  0.24329402     0.72500
Zr209      Zr  0.27888056  0.49626391  0.25556387     2.54700
O210        O  0.32557235  0.49775312  0.26142296    -0.80700
O211        O  0.28084725  0.99580904  0.18673080    -0.94100
Zr212      Zr  0.27826799  0.49608579  0.03479355     2.64700
O213        O  0.32445770  0.49643187  0.02973437    -0.99100
O214        O  0.27914133  0.99523417  0.10360138    -0.81200
O215        O  0.26495040  0.46765644  0.31183108    -0.84500
O216        O  0.29343565  0.02455315  0.31188343    -2.19200
O217        O  0.21826082  0.04543049  0.23300078    -0.67900
O218        O  0.25460890  0.07960087  0.27050586    -0.52500
C219        C  0.23596880  0.07197650  0.24334782     0.70900
O220        O  0.16729786  0.44707368  0.05533100    -0.60800
O221        O  0.17060774  0.41285216  0.01926462    -0.52800
C222        C  0.15892098  0.42052777  0.04560527     0.72700
O223        O  0.21768320  0.04547702  0.05587258    -0.72200
O224        O  0.25457926  0.07962709  0.01903222    -0.50900
C225        C  0.23567632  0.07200064  0.04585552     0.74100
O226        O  0.16759278  0.44689508  0.23403091    -0.67500
O227        O  0.17071277  0.41271167  0.27042413    -0.54700
C228        C  0.15911676  0.42034830  0.24390590     0.72400
Zr229      Zr  0.20373513  0.49605236  0.25490453     2.77500
O230        O  0.15787921  0.49653154  0.25798829    -0.98300
O231        O  0.20380722  0.49495150  0.18611025    -0.79100
Zr232      Zr  0.20321238  0.49613486  0.03408873     2.70100
O233        O  0.15737030  0.49642784  0.02856241    -0.80400
O234        O  0.20060038  0.49473950  0.10289116    -0.99400
Zr235      Zr  0.21282527  0.43978494  0.31162115     2.21500
Zr236      Zr  0.26902358  0.05222779  0.31149547     2.11100
O237        O  0.21690680  0.02445564  0.31114164    -2.48100
O238        O  0.18859923  0.46759511  0.31119475    -0.80100
O239        O  0.25547545  0.02461712  0.25431931    -0.72300
O240        O  0.22655958  0.46777884  0.03531714    -2.33300
O241        O  0.22712372  0.46774065  0.25456271    -2.29500
O242        O  0.25499162  0.02462180  0.03545877    -0.74100
H243        H  0.31441510  0.03726631  0.31192976     0.77900
H244        H  0.22022562  0.45531881  0.05743251     0.79000
H245        H  0.20856531  0.03710397  0.31104444     0.81200
H246        H  0.22089531  0.45519795  0.23252545     0.78800
H247        H  0.26473888  0.50106459  0.11130214     0.41900
H248        H  0.21936950  0.01171319  0.11111947     0.40800
H249        H  0.14551732  0.48040812  0.01055051     0.40500
H250        H  0.16282066  0.01502719  0.27111006     0.38400
H251        H  0.22374442  0.99901438  0.17954035     0.41600
H252        H  0.26132105  0.47976334  0.17899779     0.36400
H253        H  0.32132271  0.48082160  0.27775839     0.42500
H254        H  0.33811927  0.01540947  0.01772085     0.38900
H255        H  0.15400352  0.49968731  0.23144181     0.43800
H256        H  0.29438929  0.48846492  0.18084639     0.42500
H257        H  0.33144514  0.49844928  0.05621331     0.42700
H258        H  0.18565091  0.50020364  0.10909148     0.43000
C259        C  0.24819314  0.35239178  0.39987554     0.79700
N260        N  0.24562954  0.37346586  0.38111584    -0.78600
C261        C  0.24824532  0.39702666  0.40016920     0.82100
N262        N  0.25232520  0.39892180  0.43832588    -0.78600
C263        C  0.25391734  0.37743130  0.45751468     0.82200
N264        N  0.25230091  0.35440900  0.43806372    -0.80300
C265        C  0.24793510  0.35213847  0.55673762     0.79700
N266        N  0.24563974  0.37328629  0.57570415    -0.78600
C267        C  0.24854041  0.39702265  0.55686090     0.82100
N268        N  0.25262050  0.39900890  0.51867865    -0.78600
C269        C  0.25390853  0.37739864  0.49930088     0.82200
N270        N  0.25200181  0.35420710  0.51856924    -0.80300
C271        C  0.13423498  0.39710451  0.55649680     0.79700
N272        N  0.13204334  0.39922702  0.51834611    -0.78600
C273        C  0.10891326  0.37787794  0.49900040     0.82100
N274        N  0.08745960  0.35480994  0.51831207    -0.78600
C275        C  0.08951708  0.35260661  0.55646508     0.82200
N276        N  0.11320848  0.37349467  0.57535973    -0.80300
C277        C  0.13408896  0.39728907  0.39965295     0.79700
N278        N  0.13189172  0.39939140  0.43780309    -0.78600
C279        C  0.10890487  0.37788543  0.45716435     0.82100
N280        N  0.08761533  0.35468326  0.43786998    -0.78600
C281        C  0.08968470  0.35249264  0.39972068     0.82200
N282        N  0.11323224  0.37355571  0.38079737    -0.80300
C283        C  0.08966812  0.23841654  0.39953675     0.79700
N284        N  0.08775392  0.23452447  0.43776064    -0.78600
C285        C  0.10920845  0.23295125  0.45714976     0.82100
N286        N  0.13218678  0.23439330  0.43784162    -0.78600
C287        C  0.13419558  0.23827318  0.39963323     0.82200
N288        N  0.11320643  0.24085012  0.38065542    -0.80300
C289        C  0.08975665  0.23887046  0.55636970     0.79700
N290        N  0.11318071  0.24116886  0.57541803    -0.78600
C291        C  0.13408329  0.23829535  0.55666028     0.82100
N292        N  0.13207761  0.23427851  0.51844621    -0.78600
C293        C  0.10921510  0.23301761  0.49897707     0.82200
N294        N  0.08786247  0.23486137  0.51819075    -0.80300
C295        C  0.39141821  0.14028025  0.55576401     0.79700
N296        N  0.39364379  0.13788956  0.51774950    -0.78600
C297        C  0.37233416  0.11467566  0.49860880     0.82100
N298        N  0.34917813  0.09335339  0.51787836    -0.78600
C299        C  0.34679923  0.09562385  0.55589690     0.82200
N300        N  0.36769856  0.11940052  0.57468726    -0.80300
C301        C  0.39116750  0.13982995  0.39955821     0.79700
N302        N  0.36745609  0.11878344  0.38088013    -0.78600
C303        C  0.34673392  0.09510629  0.39998027     0.82100
N304        N  0.34921207  0.09305523  0.43798490    -0.78600
C305        C  0.37233583  0.11454085  0.45701411     0.82200
N306        N  0.39352000  0.13769062  0.43760991    -0.80300
C307        C  0.34689149  0.25295914  0.40002645     0.79700
N308        N  0.36776832  0.25007338  0.38118841    -0.78600
C309        C  0.39127950  0.25250251  0.40017941     0.82100
N310        N  0.39331411  0.25675919  0.43825883    -0.78600
C311        C  0.37201681  0.25868516  0.45741833     0.82200
N312        N  0.34905327  0.25722063  0.43811691    -0.80300
C313        C  0.34655835  0.25241206  0.55629381     0.79700
N314        N  0.36750562  0.24970666  0.57519442    -0.78600
C315        C  0.39116754  0.25243800  0.55628441     0.82100
N316        N  0.39329143  0.25681304  0.51823023    -0.78600
C317        C  0.37192868  0.25856840  0.49901154     0.82200
N318        N  0.34879967  0.25679641  0.51823350    -0.80300
C319        C  0.23444693  0.09526661  0.55607425     0.79700
N320        N  0.23710800  0.11891263  0.57498810    -0.78600
C321        C  0.23426082  0.13980442  0.55614096     0.82100
N322        N  0.22978374  0.13749016  0.51808130    -0.78600
C323        C  0.22811707  0.11440337  0.49882290     0.82200
N324        N  0.23002202  0.09310862  0.51801833    -0.80300
C325        C  0.23419347  0.09524695  0.39984353     0.79700
N326        N  0.23678642  0.11886301  0.38097903    -0.78600
C327        C  0.23397826  0.13972774  0.39993907     0.82100
N328        N  0.22963974  0.13744061  0.43801004    -0.78600
C329        C  0.22803146  0.11437599  0.45720257     0.82200
N330        N  0.22987618  0.09308162  0.43792050    -0.80300
O331        O  0.26509499  0.31946362  0.38854198    -0.75900
O332        O  0.22736054  0.31585148  0.35269684    -0.54800
C333        C  0.24674629  0.32765274  0.37899001     0.77900
O334        O  0.31305848  0.26872387  0.56653741    -0.60500
O335        O  0.31069451  0.23225561  0.60397222    -0.53500
C336        C  0.32179784  0.25094975  0.57688597     0.69900
O337        O  0.26458831  0.31897600  0.56744990    -0.75000
O338        O  0.22733634  0.31583705  0.60401340    -0.55600
C339        C  0.24646775  0.32738071  0.57741663     0.75900
O340        O  0.31338981  0.26930107  0.38962472    -0.60200
O341        O  0.31089865  0.23265412  0.35244777    -0.53300
C342        C  0.32210675  0.25148236  0.37939610     0.72500
Zr343      Zr  0.27844860  0.28356982  0.36749143     2.54700
O344        O  0.32445542  0.32943262  0.36094760    -0.80700
O345        O  0.28077971  0.28568297  0.43633483    -0.94100
Zr346      Zr  0.27813173  0.28316609  0.58825200     2.64700
O347        O  0.32458144  0.32896191  0.59201418    -0.99100
O348        O  0.27768783  0.28308285  0.51937205    -0.81200
O349        O  0.26460768  0.29817700  0.64451187    -0.84500
O350        O  0.29311556  0.26983404  0.64459096    -2.19200
O351        O  0.21794241  0.17352367  0.39017411    -0.67900
O352        O  0.25397656  0.17555303  0.35213418    -0.52500
C353        C  0.23546522  0.16456046  0.37945369     0.70900
O354        O  0.16711375  0.22136984  0.56791742    -0.60800
O355        O  0.17039079  0.25886157  0.60402680    -0.52800
C356        C  0.15876180  0.23960268  0.57758197     0.72700
O357        O  0.21751431  0.17296909  0.56703678    -0.72200
O358        O  0.25475711  0.17610021  0.60347511    -0.50900
C359        C  0.23569899  0.16460354  0.57682296     0.74100
O360        O  0.16741712  0.22163722  0.38899561    -0.67500
O361        O  0.17043314  0.25876883  0.35235217    -0.54700
C362        C  0.15893252  0.23967303  0.37897170     0.72400
Zr363      Zr  0.20340475  0.20835203  0.36825412     2.77500
O364        O  0.15744792  0.16204928  0.36524379    -0.98300
O365        O  0.20247633  0.20917941  0.43710336    -0.79100
Zr366      Zr  0.20306359  0.20794909  0.58887703     2.70100
O367        O  0.15764136  0.16144479  0.59426465    -0.80400
O368        O  0.20024168  0.20626867  0.52008275    -0.99400
Zr369      Zr  0.21253827  0.27376579  0.64487792     2.21500
Zr370      Zr  0.26885235  0.21772247  0.64491161     2.11100
O371        O  0.21673049  0.19332350  0.64522375    -2.48100
O372        O  0.18830877  0.22165507  0.64521081    -0.80100
O373        O  0.25521070  0.23175800  0.36881054    -0.72300
O374        O  0.22639574  0.25968809  0.58774863    -2.33300
O375        O  0.22671307  0.26008102  0.36865629    -2.29500
O376        O  0.25486765  0.23138629  0.58772270    -0.74100
H377        H  0.31410373  0.27817108  0.64458552     0.77900
H378        H  0.22005897  0.26585526  0.56567478     0.79000
H379        H  0.20844687  0.17234214  0.64522390     0.81200
H380        H  0.22048447  0.26643413  0.39065554     0.78800
H381        H  0.26763059  0.26208923  0.51245072     0.41900
H382        H  0.21987662  0.21041653  0.51177410     0.40800
H383        H  0.14566119  0.16530956  0.61242713     0.40500
H384        H  0.16184239  0.14904685  0.34980028     0.38400
H385        H  0.21603684  0.22988816  0.44382679     0.41600
H386        H  0.26199867  0.28396372  0.44435882     0.36400
H387        H  0.31967235  0.34172339  0.34459926     0.42500
H388        H  0.33777136  0.32408197  0.60620196     0.38900
H389        H  0.15460408  0.15401156  0.39125553     0.43800
H390        H  0.29571561  0.30616433  0.44222611     0.42500
H391        H  0.33224374  0.33256076  0.56575617     0.42700
H392        H  0.18711041  0.18534806  0.51395105     0.43000
O393        O  0.03964823  0.31967074  0.56778632    -0.75900
O394        O  0.07385820  0.31597357  0.60334272    -0.54800
C395        C  0.06621129  0.32781578  0.57720353     0.77900
O396        O  0.44112052  0.26886994  0.38981909    -0.60500
O397        O  0.40700253  0.23213244  0.35271183    -0.53500
C398        C  0.41458881  0.25096079  0.37964592     0.69900
O399        O  0.03985804  0.31893140  0.38920708    -0.75000
O400        O  0.07401978  0.31634251  0.35211869    -0.55600
C401        C  0.06640787  0.32763914  0.37901565     0.75900
O402        O  0.44101503  0.26880177  0.56646188    -0.60200
O403        O  0.40697385  0.23239995  0.60400376    -0.53300
C404        C  0.41451089  0.25103578  0.57686135     0.72500
Zr405      Zr  0.49036417  0.28352948  0.58856410     2.54700
O406        O  0.48919546  0.32889170  0.59441779    -0.80700
O407        O  0.49056335  0.28581556  0.51970443    -0.94100
Zr408      Zr  0.49048810  0.28339959  0.36788881     2.64700
O409        O  0.49044073  0.32942270  0.36325537    -0.99100
O410        O  0.49080443  0.28459619  0.43672179    -0.81200
O411        O  0.01888623  0.29835577  0.64485500    -0.84500
O412        O  0.46208231  0.26992651  0.64491346    -2.19200
O413        O  0.44128054  0.17380855  0.56604474    -0.67900
O414        O  0.40716017  0.17613633  0.60348130    -0.52500
C415        C  0.41474983  0.16506562  0.57634801     0.70900
O416        O  0.03978096  0.22156446  0.38837341    -0.60800
O417        O  0.07395809  0.25924714  0.35244444    -0.52800
C418        C  0.06634322  0.23986828  0.37874493     0.72700
O419        O  0.44090921  0.17319506  0.38877166    -0.72200
O420        O  0.40668436  0.17585146  0.35199182    -0.50900
C421        C  0.41435075  0.16457874  0.37877736     0.74100
O422        O  0.03986286  0.22212310  0.56713862    -0.67500
O423        O  0.07396532  0.25940283  0.60362364    -0.54700
C424        C  0.06639694  0.24028820  0.57701928     0.72400
Zr425      Zr  0.49056451  0.20855625  0.58828871     2.77500
O426        O  0.49000677  0.16214269  0.59075213    -0.98300
O427        O  0.49160423  0.20949002  0.51950713    -0.79100
Zr428      Zr  0.49045888  0.20835599  0.36768172     2.70100
O429        O  0.48919364  0.16172399  0.36321457    -0.80400
O430        O  0.49160218  0.20777206  0.43656937    -0.99400
Zr431      Zr  0.04674257  0.27411702  0.64472604     2.21500
Zr432      Zr  0.43436175  0.21782942  0.64474886     2.11100
O433        O  0.46223058  0.19358506  0.64464419    -2.48100
O434        O  0.01896566  0.22200495  0.64469169    -0.80100
O435        O  0.46197510  0.23173237  0.58751170    -0.72300
O436        O  0.01886245  0.26007368  0.36855803    -2.33300
O437        O  0.01881937  0.26025371  0.58762195    -2.29500
O438        O  0.46194412  0.23160847  0.36870200    -0.74100
H439        H  0.44936373  0.27818494  0.64491438     0.77900
H440        H  0.03137794  0.26626683  0.39062201     0.79000
H441        H  0.44958956  0.17259483  0.64461810     0.81200
H442        H  0.03133419  0.26656398  0.56555828     0.77900
H443        H  0.98618854  0.26466378  0.44418846     0.41900
H444        H  0.47436254  0.20922470  0.44445713     0.40800
H445        H  0.00537825  0.16553412  0.34566093     0.40500
H446        H  0.47199592  0.14880280  0.60494527     0.38400
H447        H  0.48954549  0.22660685  0.51288837     0.41600
H448        H  0.00696886  0.28293624  0.51188967     0.36400
H449        H  0.00659505  0.34177540  0.60994035     0.42500
H450        H  0.47305323  0.32487622  0.34770395     0.38900
H451        H  0.48583866  0.15477482  0.56435657     0.43800
H452        H  0.49731341  0.30658382  0.51381631     0.42500
H453        H  0.48529864  0.33271474  0.38907886     0.42700
H454        H  0.48648182  0.18751020  0.44310889     0.43000
O455        O  0.26542868  0.44690585  0.56800824    -0.75900
O456        O  0.22788398  0.41269952  0.60407336    -0.54800
C457        C  0.24717406  0.42035022  0.57766829     0.77900
O458        O  0.31313464  0.04529867  0.39014581    -0.60500
O459        O  0.31071884  0.07934060  0.35264664    -0.53500
C460        C  0.32187411  0.07177858  0.37968232     0.69900
O461        O  0.26477181  0.44691226  0.38965711    -0.75000
O462        O  0.22773976  0.41277696  0.35288374    -0.55600
C463        C  0.24677767  0.42037778  0.37959759     0.75900
O464        O  0.31341665  0.04568546  0.56650867    -0.60200
O465        O  0.31082194  0.07977403  0.60368150    -0.53300
C466        C  0.32202836  0.07223864  0.57662905     0.72500
Zr467      Zr  0.27887738  0.49626243  0.58889523     2.54700
O468        O  0.32556892  0.49775082  0.59475160    -0.80700
O469        O  0.28085332  0.99581278  0.52006457    -0.94100
Zr470      Zr  0.27827074  0.49608790  0.36812577     2.64700
O471        O  0.32446023  0.49643501  0.36305251    -0.99100
O472        O  0.27914595  0.99523509  0.43693638    -0.81200
O473        O  0.26494718  0.46765473  0.64516224    -0.84500
O474        O  0.29343587  0.02455365  0.64521644    -2.19200
O475        O  0.21825807  0.04542967  0.56633688    -0.67900
O476        O  0.25460980  0.07959986  0.60383803    -0.52500
C477        C  0.23596817  0.07197560  0.57668218     0.70900
O478        O  0.16730047  0.44707518  0.38866676    -0.60800
O479        O  0.17061075  0.41285411  0.35259980    -0.52800
C480        C  0.15892350  0.42052933  0.37894048     0.72700
O481        O  0.21768703  0.04547848  0.38921087    -0.72200
O482        O  0.25457963  0.07962726  0.35236514    -0.50900
C483        C  0.23567880  0.07200159  0.37919091     0.74100
O484        O  0.16758598  0.44689490  0.56736539    -0.67500
O485        O  0.17070830  0.41271099  0.60375444    -0.54700
C486        C  0.15911069  0.42034807  0.57723879     0.72400
Zr487      Zr  0.20373191  0.49605070  0.58823729     2.77500
O488        O  0.15787591  0.49653037  0.59131532    -0.98300
O489        O  0.20381175  0.49494730  0.51944344    -0.79100
Zr490      Zr  0.20321466  0.49613627  0.36742296     2.70100
O491        O  0.15737513  0.49643366  0.36189113    -0.80400
O492        O  0.20060039  0.49474441  0.43622498    -0.99400
Zr493      Zr  0.21282200  0.43978285  0.64495063     2.21500
Zr494      Zr  0.26902257  0.05222678  0.64482859     2.11100
O495        O  0.21690552  0.02445514  0.64447525    -2.48100
O496        O  0.18859621  0.46759316  0.64452677    -0.80100
O497        O  0.25547320  0.02461608  0.58765265    -0.72300
O498        O  0.22656246  0.46778061  0.36865247    -2.33300
O499        O  0.22712030  0.46773872  0.58789245    -2.29500
O500        O  0.25499369  0.02462352  0.36879275    -0.74100
H501        H  0.31441524  0.03726716  0.64526226     0.77900
H502        H  0.22022915  0.45532091  0.39076819     0.79000
H503        H  0.20856406  0.03710346  0.64437863     0.81200
H504        H  0.22089175  0.45519638  0.56585495     0.78800
H505        H  0.26510422  0.50151901  0.44465140     0.41900
H506        H  0.21937434  0.01171177  0.44445688     0.40800
H507        H  0.14551922  0.48040928  0.34388634     0.40500
H508        H  0.16281691  0.01502437  0.60444753     0.38400
H509        H  0.22374035  0.99901098  0.51287470     0.41600
H510        H  0.26131467  0.47977290  0.51232402     0.36400
H511        H  0.32132359  0.48083030  0.61110686     0.42500
H512        H  0.33812356  0.01541649  0.35107032     0.38900
H513        H  0.15400446  0.49969177  0.56476935     0.43800
H514        H  0.29437717  0.48845273  0.51417681     0.42500
H515        H  0.33144112  0.49843219  0.38953224     0.42700
H516        H  0.18567534  0.50024185  0.44242503     0.43000
C517        C  0.24819255  0.35239191  0.73320751     0.79700
N518        N  0.24562716  0.37346504  0.71444804    -0.78600
C519        C  0.24824043  0.39702466  0.73350182     0.82100
N520        N  0.25231942  0.39891949  0.77165866    -0.78600
C521        C  0.25391339  0.37742995  0.79084722     0.82200
N522        N  0.25229969  0.35440896  0.77139586    -0.80300
C523        C  0.24793432  0.35213774  0.89007010     0.79700
N524        N  0.24563776  0.37328465  0.90903719    -0.78600
C525        C  0.24853632  0.39702031  0.89019444     0.82100
N526        N  0.25261533  0.39900658  0.85201191    -0.78600
C527        C  0.25390452  0.37739707  0.83263355     0.82200
N528        N  0.25200008  0.35420639  0.85190157    -0.80300
C529        C  0.13423621  0.39710428  0.88982971     0.79700
N530        N  0.13204559  0.39922482  0.85167833    -0.78600
C531        C  0.10891535  0.37787516  0.83233328     0.82100
N532        N  0.08746084  0.35480866  0.85164616    -0.78600
C533        C  0.08951742  0.35260744  0.88979974     0.82200
N534        N  0.11320871  0.37349601  0.90869379    -0.80300
C535        C  0.13408808  0.39728409  0.73298395     0.79700
N536        N  0.13189237  0.39938692  0.77113431    -0.78600
C537        C  0.10890639  0.37788111  0.79049708     0.82100
N538        N  0.08761609  0.35467863  0.77120398    -0.78600
C539        C  0.08968414  0.35248747  0.73305454     0.82200
N540        N  0.11323087  0.37355027  0.71412976    -0.80300
C541        C  0.08967040  0.23841852  0.73287095     0.79700
N542        N  0.08775504  0.23452485  0.77109453    -0.78600
C543        C  0.10920843  0.23294983  0.79048389     0.82100
N544        N  0.13218694  0.23439175  0.77117596    -0.78600
C545        C  0.13419701  0.23827361  0.73296773     0.82200
N546        N  0.11320881  0.24085211  0.71399002    -0.80300
C547        C  0.08975644  0.23887087  0.88970358     0.79700
N548        N  0.11318011  0.24116870  0.90875213    -0.78600
C549        C  0.13408195  0.23829369  0.88999494     0.82100
N550        N  0.13207607  0.23427582  0.85178105    -0.78600
C551        C  0.10921408  0.23301546  0.83231140     0.82200
N552        N  0.08786196  0.23486065  0.85152466    -0.80300
C553        C  0.39141565  0.14027997  0.88909652     0.79700
N554        N  0.39364166  0.13788936  0.85108200    -0.78600
C555        C  0.37233215  0.11467566  0.83194068     0.82100
N556        N  0.34917567  0.09335328  0.85120967    -0.78600
C557        C  0.34679622  0.09562354  0.88922821     0.82200
N558        N  0.36769542  0.11940021  0.90801900    -0.80300
C559        C  0.39116683  0.13983043  0.73289012     0.79700
N560        N  0.36745571  0.11878391  0.71421157    -0.78600
C561        C  0.34673369  0.09510645  0.73331143     0.82100
N562        N  0.34921152  0.09305519  0.77131607    -0.78600
C563        C  0.37233469  0.11454095  0.79034581     0.82200
N564        N  0.39351887  0.13769098  0.77094194    -0.80300
C565        C  0.34689368  0.25296092  0.73336017     0.79700
N566        N  0.36777129  0.25007595  0.71452301    -0.78600
C567        C  0.39128277  0.25250650  0.73351472     0.82100
N568        N  0.39331677  0.25676347  0.77159400    -0.78600
C569        C  0.37201844  0.25868812  0.79075269     0.82200
N570        N  0.34905468  0.25722244  0.77145061    -0.80300
C571        C  0.34655848  0.25241167  0.88962794     0.79700
N572        N  0.36750556  0.24970544  0.90852782    -0.78600
C573        C  0.39116759  0.25243735  0.88961740     0.82100
N574        N  0.39329179  0.25681381  0.85156367    -0.78600
C575        C  0.37192935  0.25857000  0.83234565     0.82200
N576        N  0.34880012  0.25679734  0.85156782    -0.80300
C577        C  0.23444382  0.09526522  0.88940701     0.79700
N578        N  0.23710504  0.11891157  0.90832027    -0.78600
C579        C  0.23425802  0.13980332  0.88947261     0.82100
N580        N  0.22978069  0.13748847  0.85141295    -0.78600
C581        C  0.22811390  0.11440139  0.83215499     0.82200
N582        N  0.23001890  0.09310687  0.85135099    -0.80300
C583        C  0.23419319  0.09524659  0.73317527     0.79700
N584        N  0.23678620  0.11886288  0.71431131    -0.78600
C585        C  0.23397690  0.13972679  0.73327167     0.82100
N586        N  0.22963714  0.13743874  0.77134230    -0.78600
C587        C  0.22802904  0.11437414  0.79053451     0.82200
N588        N  0.22987501  0.09308051  0.77125218    -0.80300
O589        O  0.26509561  0.31946426  0.72187481    -0.75900
O590        O  0.22736157  0.31585169  0.68602831    -0.54800
C591        C  0.24674696  0.32765327  0.71232189     0.77900
O592        O  0.31305887  0.26872384  0.89987289    -0.60500
O593        O  0.31069449  0.23225474  0.93730639    -0.53500
C594        C  0.32179807  0.25094935  0.91022068     0.69900
O595        O  0.26458924  0.31897650  0.90078275    -0.75000
O596        O  0.22733627  0.31583638  0.93734529    -0.55600
C597        C  0.24646796  0.32738042  0.91074890     0.75900
O598        O  0.31339106  0.26930148  0.72295784    -0.60200
O599        O  0.31090179  0.23265574  0.68578020    -0.53300
C600        C  0.32210902  0.25148361  0.71272901     0.72500
Zr601      Zr  0.27844975  0.28357044  0.70082497     2.54700
O602        O  0.32445470  0.32943502  0.69427942    -0.80700
O603        O  0.28078532  0.28568499  0.76966819    -0.94100
Zr604      Zr  0.27813178  0.28316644  0.92158650     2.64700
O605        O  0.32458164  0.32896157  0.92535497    -0.99100
O606        O  0.27768767  0.28308746  0.85270661    -0.81200
O607        O  0.26460703  0.29817724  0.97784609    -0.84500
O608        O  0.29311398  0.26983335  0.97792544    -2.19200
O609        O  0.21794105  0.17352245  0.72350641    -0.67900
O610        O  0.25397767  0.17555370  0.68546975    -0.52500
C611        C  0.23546467  0.16455996  0.71278720     0.70900
O612        O  0.16711368  0.22136997  0.90125084    -0.60800
O613        O  0.17038854  0.25885966  0.93736256    -0.52800
C614        C  0.15876052  0.23960151  0.91091672     0.72700
O615        O  0.21751324  0.17296975  0.90036745    -0.72200
O616        O  0.25475470  0.17609926  0.93680706    -0.50900
C617        C  0.23569700  0.16460318  0.91015422     0.74100
O618        O  0.16742099  0.22164026  0.72233365    -0.67500
O619        O  0.17043144  0.25876530  0.68568158    -0.54700
C620        C  0.15893377  0.23967308  0.71230572     0.72400
Zr621      Zr  0.20340554  0.20835253  0.70158812     2.77500
O622        O  0.15744629  0.16205225  0.69857726    -0.98300
O623        O  0.20247311  0.20917502  0.77043722    -0.79100
Zr624      Zr  0.20306325  0.20794948  0.92221098     2.70100
O625        O  0.15764220  0.16144457  0.92760331    -0.80400
O626        O  0.20023763  0.20626645  0.85341713    -0.99400
Zr627      Zr  0.21253749  0.27376599  0.97821170     2.21500
Zr628      Zr  0.26885173  0.21772194  0.97824443     2.11100
O629        O  0.21673042  0.19332429  0.97855737    -2.48100
O630        O  0.18830871  0.22165561  0.97854488    -0.80100
O631        O  0.25521164  0.23175850  0.70214562    -0.72300
O632        O  0.22639571  0.25968846  0.92108303    -2.33300
O633        O  0.22671418  0.26008155  0.70198995    -2.29500
O634        O  0.25486738  0.23138651  0.92105564    -0.74100
H635        H  0.31410219  0.27817036  0.97792028     0.77900
H636        H  0.22005899  0.26585565  0.89900906     0.79000
H637        H  0.20844655  0.17234285  0.97855745     0.81200
H638        H  0.22048567  0.26643500  0.72398908     0.78800
H639        H  0.26765013  0.26209480  0.84578281     0.41900
H640        H  0.21987455  0.21042142  0.84510719     0.40800
H641        H  0.14567427  0.16530161  0.94579621     0.40500
H642        H  0.16184001  0.14904791  0.68313696     0.38400
H643        H  0.21604154  0.22988153  0.77716308     0.41600
H644        H  0.26200342  0.28396307  0.77769392     0.36400
H645        H  0.31967619  0.34171503  0.67790289     0.42500
H646        H  0.33776994  0.32408114  0.93954589     0.38900
H647        H  0.15460034  0.15401580  0.72459007     0.43800
H648        H  0.29571945  0.30616701  0.77555849     0.42500
H649        H  0.33224661  0.33256063  0.89909820     0.42700
H650        H  0.18711193  0.18534459  0.84728636     0.43000
O651        O  0.03964868  0.31967338  0.90112369    -0.75900
O652        O  0.07385898  0.31597417  0.93667667    -0.54800
C653        C  0.06621180  0.32781734  0.91053912     0.77900
O654        O  0.44112403  0.26887463  0.72315534    -0.60500
O655        O  0.40700659  0.23213692  0.68604799    -0.53500
C656        C  0.41459254  0.25096526  0.71298202     0.69900
O657        O  0.03985703  0.31892808  0.72253952    -0.75000
O658        O  0.07401914  0.31633610  0.68545546    -0.55600
C659        C  0.06640699  0.32763400  0.71235039     0.75900
O660        O  0.44101521  0.26880138  0.89979401    -0.60200
O661        O  0.40697423  0.23239933  0.93733587    -0.53300
C662        C  0.41451113  0.25103513  0.91019355     0.72500
Zr663      Zr  0.49036418  0.28352967  0.92189705     2.54700
O664        O  0.48919326  0.32889070  0.92774902    -0.80700
O665        O  0.49055905  0.28580995  0.85303737    -0.94100
Zr666      Zr  0.49049017  0.28340288  0.70122238     2.64700
O667        O  0.49044671  0.32942823  0.69658929    -0.99100
O668        O  0.49080225  0.28459978  0.77005499    -0.81200
O669        O  0.01888632  0.29835712  0.97818887    -0.84500
O670        O  0.46208231  0.26992625  0.97824680    -2.19200
O671        O  0.44127868  0.17380834  0.89937807    -0.67900
O672        O  0.40715840  0.17613564  0.93681531    -0.52500
C673        C  0.41474778  0.16506514  0.90968143     0.70900
O674        O  0.03978323  0.22156447  0.72170603    -0.60800
O675        O  0.07395997  0.25924793  0.68577762    -0.52800
C676        C  0.06634542  0.23986938  0.71207842     0.72700
O677        O  0.44090884  0.17319333  0.72210200    -0.72200
O678        O  0.40668450  0.17585469  0.68532718    -0.50900
C679        C  0.41435044  0.16457933  0.71210981     0.74100
O680        O  0.03986304  0.22212613  0.90047047    -0.67500
O681        O  0.07396542  0.25940232  0.93696013    -0.54700
C682        C  0.06639706  0.24028945  0.91035325     0.72400
Zr683      Zr  0.49056380  0.20855690  0.92162087     2.77500
O684        O  0.49000420  0.16214241  0.92407826    -0.98300
O685        O  0.49160637  0.20949814  0.85283943    -0.79100
Zr686      Zr  0.49045911  0.20835679  0.70101657     2.70100
O687        O  0.48919288  0.16172504  0.69653138    -0.80400
O688        O  0.49159661  0.20776250  0.76990439    -0.99400
Zr689      Zr  0.04674284  0.27411854  0.97806083     2.21500
Zr690      Zr  0.43436140  0.21782909  0.97808232     2.11100
O691        O  0.46223087  0.19358599  0.97797674    -2.48100
O692        O  0.01896607  0.22200631  0.97802452    -0.80100
O693        O  0.46197434  0.23173264  0.92084513    -0.72300
O694        O  0.01886284  0.26006965  0.70189017    -2.33300
O695        O  0.01881966  0.26025483  0.92095640    -2.29500
O696        O  0.46194644  0.23161161  0.70203674    -0.74100
H697        H  0.44936359  0.27818458  0.97824769     0.77900
H698        H  0.03137835  0.26626317  0.72395408     0.79000
H699        H  0.44959028  0.17259564  0.97795061     0.81200
H700        H  0.03133461  0.26656539  0.89889285     0.77900
H701        H  0.98608816  0.26461627  0.77751991     0.41900
H702        H  0.47435177  0.20920585  0.77779235     0.40800
H703        H  0.00543078  0.16554651  0.67910228     0.40500
H704        H  0.47198456  0.14879759  0.93825239     0.38400
H705        H  0.48950208  0.22658861  0.84622292     0.41600
H706        H  0.00697071  0.28293578  0.84522336     0.36400
H707        H  0.00659059  0.34177652  0.94326579     0.42500
H708        H  0.47307998  0.32489176  0.68099892     0.38900
H709        H  0.48585226  0.15478409  0.89767784     0.43800
H710        H  0.49731846  0.30657965  0.84714625     0.42500
H711        H  0.48526989  0.33270275  0.72240130     0.42700
H712        H  0.48648380  0.18750195  0.77643892     0.43000
O713        O  0.26542555  0.44690368  0.90134340    -0.75900
O714        O  0.22788166  0.41269746  0.93740958    -0.54800
C715        C  0.24717079  0.42034797  0.91100326     0.77900
O716        O  0.31313668  0.04529882  0.72347543    -0.60500
O717        O  0.31071692  0.07934047  0.68598028    -0.53500
C718        C  0.32187419  0.07177865  0.71301362     0.69900
O719        O  0.26477004  0.44691031  0.72298721    -0.75000
O720        O  0.22773412  0.41277535  0.68621790    -0.55600
C721        C  0.24677342  0.42037595  0.71293003     0.75900
O722        O  0.31341347  0.04568457  0.89984048    -0.60200
O723        O  0.31081981  0.07977363  0.93701374    -0.53300
C724        C  0.32202538  0.07223800  0.90996053     0.72500
Zr725      Zr  0.27887755  0.49626148  0.92223132     2.54700
O726        O  0.32556867  0.49774948  0.92808824    -0.80700
O727        O  0.28085592  0.99580879  0.85339787    -0.94100
Zr728      Zr  0.27826806  0.49608573  0.70145767     2.64700
O729        O  0.32445709  0.49643023  0.69640123    -0.99100
O730        O  0.27915071  0.99523583  0.77026917    -0.81200
O731        O  0.26494723  0.46765422  0.97849864    -0.84500
O732        O  0.29343487  0.02455280  0.97854923    -2.19200
O733        O  0.21825735  0.04542858  0.89966745    -0.67900
O734        O  0.25460564  0.07959841  0.93717313    -0.52500
C735        C  0.23596546  0.07197433  0.91001525     0.70900
O736        O  0.16729794  0.44707047  0.72199588    -0.60800
O737        O  0.17060809  0.41284960  0.68592839    -0.52800
C738        C  0.15892130  0.42052459  0.71226977     0.72700
O739        O  0.21768873  0.04547817  0.72254353    -0.72200
O740        O  0.25457793  0.07962739  0.68569424    -0.50900
C741        C  0.23567875  0.07200147  0.71252202     0.74100
O742        O  0.16758756  0.44689479  0.90069668    -0.67500
O743        O  0.17070817  0.41271151  0.93708932    -0.54700
C744        C  0.15911164  0.42034817  0.91057168     0.72400
Zr745      Zr  0.20373306  0.49605047  0.92156923     2.77500
O746        O  0.15787839  0.49653250  0.92464559    -0.98300
O747        O  0.20381283  0.49494786  0.85277489    -0.79100
Zr748      Zr  0.20321193  0.49613339  0.70075585     2.70100
O749        O  0.15736721  0.49642201  0.69523805    -0.80400
O750        O  0.20060687  0.49473917  0.76955868    -0.99400
Zr751      Zr  0.21282181  0.43978289  0.97828630     2.21500
Zr752      Zr  0.26902175  0.05222651  0.97816217     2.11100
O753        O  0.21690481  0.02445429  0.97780545    -2.48100
O754        O  0.18859692  0.46759401  0.97785999    -0.80100
O755        O  0.25547307  0.02461526  0.92098597    -0.72300
O756        O  0.22655982  0.46777823  0.70198141    -2.33300
O757        O  0.22712062  0.46773785  0.92122727    -2.29500
O758        O  0.25499332  0.02462211  0.70212533    -0.74100
H759        H  0.31441426  0.03726609  0.97859521     0.77900
H760        H  0.22022617  0.45531788  0.72409650     0.79000
H761        H  0.20856321  0.03710248  0.97770852     0.81200
H762        H  0.22089217  0.45519519  0.89919001     0.78800
H763        H  0.26465922  0.50096460  0.77796234     0.41900
H764        H  0.21937573  0.01170969  0.77778849     0.40800
H765        H  0.14551955  0.48041180  0.67721146     0.40500
H766        H  0.16281779  0.01502595  0.93777018     0.38400
H767        H  0.22374033  0.99900860  0.84620486     0.41600
H768        H  0.26132909  0.47975839  0.84566356     0.36400
H769        H  0.32132047  0.48082186  0.94443080     0.42500
H770        H  0.33812607  0.01542258  0.68440101     0.38900
H771        H  0.15400238  0.49968389  0.89809741     0.43800
H772        H  0.29440077  0.48847325  0.84751797     0.42500
H773        H  0.33145628  0.49847302  0.72287737     0.42700
H774        H  0.18565275  0.50019616  0.77576194     0.43000
C775        C  0.24819243  0.85239235  0.06654194     0.79700
N776        N  0.24562885  0.87346638  0.04778212    -0.78600
C777        C  0.24824336  0.89702658  0.06683557     0.82100
N778        N  0.25232196  0.89892128  0.10499247    -0.78600
C779        C  0.25391411  0.87743091  0.12418151     0.82200
N780        N  0.25229902  0.85440913  0.10473048    -0.80300
C781        C  0.24793315  0.85213998  0.22340567     0.79700
N782        N  0.24563833  0.87328822  0.24237166    -0.78600
C783        C  0.24853854  0.89702408  0.22352777     0.82100
N784        N  0.25261750  0.89900938  0.18534524    -0.78600
C785        C  0.25390497  0.87739856  0.16596792     0.82200
N786        N  0.25199886  0.85420759  0.18523706    -0.80300
C787        C  0.13424105  0.89710481  0.22316456     0.79700
N788        N  0.13205087  0.89922548  0.18501315    -0.78600
C789        C  0.10892005  0.87787657  0.16566802     0.82100
N790        N  0.08746481  0.85481064  0.18498053    -0.78600
C791        C  0.08952090  0.85260915  0.22313396     0.82200
N792        N  0.11321254  0.87349699  0.24202843    -0.80300
C793        C  0.13408869  0.89728878  0.06631846     0.79700
N794        N  0.13189501  0.89939004  0.10446936    -0.78600
C795        C  0.10890968  0.87788370  0.12383211     0.82100
N796        N  0.08761818  0.85468221  0.10453864    -0.78600
C797        C  0.08968441  0.85249281  0.06638849     0.82200
N798        N  0.11323038  0.87355630  0.04746362    -0.80300
C799        C  0.08966901  0.73841788  0.06620537     0.79700
N800        N  0.08775415  0.73452493  0.10442912    -0.78600
C801        C  0.10920785  0.73295038  0.12381847     0.82100
N802        N  0.13218608  0.73439188  0.10451024    -0.78600
C803        C  0.13419541  0.73827265  0.06630176     0.82200
N804        N  0.11320701  0.74085082  0.04732415    -0.80300
C805        C  0.08975541  0.73887118  0.22303832     0.79700
N806        N  0.11317899  0.74116936  0.24208726    -0.78600
C807        C  0.13408144  0.73829532  0.22333042     0.82100
N808        N  0.13207613  0.73427784  0.18511633    -0.78600
C809        C  0.10921391  0.73301675  0.16564625     0.82200
N810        N  0.08786131  0.73486120  0.18485932    -0.80300
C811        C  0.39142101  0.64027709  0.22243136     0.79700
N812        N  0.39364631  0.63788760  0.18441637    -0.78600
C813        C  0.37233576  0.61467495  0.16527463     0.82100
N814        N  0.34917904  0.59335301  0.18454381    -0.78600
C815        C  0.34680064  0.59562244  0.22256277     0.82200
N816        N  0.36770091  0.61939770  0.24135399    -0.80300
C817        C  0.39116930  0.63982914  0.06622271     0.79700
N818        N  0.36745782  0.61878245  0.04754476    -0.78600
C819        C  0.34673570  0.59510525  0.06664510     0.82100
N820        N  0.34921402  0.59305460  0.10464992    -0.78600
C821        C  0.37233765  0.61454040  0.12367928     0.82200
N822        N  0.39352187  0.63769004  0.10427470    -0.80300
C823        C  0.34689296  0.75296037  0.06669285     0.79700
N824        N  0.36776959  0.75007337  0.04785629    -0.78600
C825        C  0.39128102  0.75250372  0.06684809     0.82100
N826        N  0.39331576  0.75676228  0.10492713    -0.78600
C827        C  0.37201847  0.75868912  0.12408539     0.82200
N828        N  0.34905494  0.75722382  0.10478297    -0.80300
C829        C  0.34655772  0.75241401  0.22296004     0.79700
N830        N  0.36750494  0.74970866  0.24186110    -0.78600
C831        C  0.39116779  0.75244143  0.22295193     0.82100
N832        N  0.39329260  0.75681792  0.18489796    -0.78600
C833        C  0.37192983  0.75857286  0.16567866     0.82200
N834        N  0.34879983  0.75679932  0.18489985    -0.80300
C835        C  0.23444798  0.59526799  0.22274010     0.79700
N836        N  0.23710783  0.61891392  0.24165319    -0.78600
C837        C  0.23425755  0.63980393  0.22280581     0.82100
N838        N  0.22977851  0.63748784  0.18474645    -0.78600
C839        C  0.22811328  0.61440134  0.16548862     0.82200
N840        N  0.23002138  0.59310853  0.18468446    -0.80300
C841        C  0.23419168  0.59524592  0.06650883     0.79700
N842        N  0.23678429  0.61886207  0.04764491    -0.78600
C843        C  0.23397450  0.63972570  0.06660534     0.82100
N844        N  0.22963459  0.63743751  0.10467589    -0.78600
C845        C  0.22802725  0.61437332  0.12386814     0.82200
N846        N  0.22987377  0.59307994  0.10458582    -0.80300
O847        O  0.26509447  0.81946406  0.05520900    -0.75900
O848        O  0.22736100  0.81585242  0.01936218    -0.54800
C849        C  0.24674616  0.82765349  0.04565616     0.77900
O850        O  0.31305628  0.76872435  0.23320214    -0.60500
O851        O  0.31069456  0.73225817  0.27063944    -0.53500
C852        C  0.32179676  0.75095127  0.24355187     0.69900
O853        O  0.26458770  0.81897895  0.23411898    -0.75000
O854        O  0.22733524  0.81583909  0.27068223    -0.55600
C855        C  0.24646667  0.82738303  0.24408549     0.75900
O856        O  0.31339195  0.76930296  0.05628845    -0.60200
O857        O  0.31089986  0.73265423  0.01911422    -0.53300
C858        C  0.32210850  0.75148353  0.04606135     0.72500
Zr859      Zr  0.27844908  0.78357087  0.03415784     2.54700
O860        O  0.32445344  0.82943515  0.02760517    -0.80700
O861        O  0.28078651  0.78568917  0.10300085    -0.94100
Zr862      Zr  0.27813081  0.78316834  0.25491830     2.64700
O863        O  0.32458058  0.82896461  0.25867685    -0.99100
O864        O  0.27767910  0.78308613  0.18603841    -0.81200
O865        O  0.26460723  0.79817920  0.31117891    -0.84500
O866        O  0.29311392  0.76983486  0.31125676    -2.19200
O867        O  0.21793924  0.67352176  0.05684092    -0.67900
O868        O  0.25397583  0.67555316  0.01880401    -0.52500
C869        C  0.23546266  0.66455919  0.04612132     0.70900
O870        O  0.16711189  0.72137062  0.23458812    -0.60800
O871        O  0.17038829  0.75886174  0.27069802    -0.52800
C872        C  0.15875959  0.73960297  0.24425296     0.72700
O873        O  0.21751010  0.67296841  0.23370357    -0.72200
O874        O  0.25475623  0.67610225  0.27013709    -0.50900
C875        C  0.23569617  0.66460390  0.24348729     0.74100
O876        O  0.16741802  0.72163793  0.05566541    -0.67500
O877        O  0.17043132  0.75876641  0.01901776    -0.54700
C878        C  0.15893215  0.73967228  0.04563960     0.72400
Zr879      Zr  0.20340526  0.70835276  0.03492286     2.77500
O880        O  0.15744785  0.66205065  0.03191022    -0.98300
O881        O  0.20248101  0.70917808  0.10377244    -0.79100
Zr882      Zr  0.20306254  0.70795090  0.25554499     2.70100
O883        O  0.15763905  0.66144727  0.26092603    -0.80400
O884        O  0.20024061  0.70627373  0.18675095    -0.99400
Zr885      Zr  0.21253771  0.77376761  0.31154628     2.21500
Zr886      Zr  0.26885104  0.71772311  0.31157692     2.11100
O887        O  0.21672943  0.69332455  0.31189084    -2.48100
O888        O  0.18830861  0.72165677  0.31187976    -0.80100
O889        O  0.25521129  0.73175888  0.03547829    -0.72300
O890        O  0.22639485  0.75969002  0.25441695    -2.33300
O891        O  0.22671334  0.76008184  0.03532397    -2.29500
O892        O  0.25486656  0.73138831  0.25438870    -0.74100
H893        H  0.31410212  0.77817178  0.31125125     0.77900
H894        H  0.22005765  0.76585719  0.23234339     0.79000
H895        H  0.20844577  0.67234312  0.31189050     0.81200
H896        H  0.22048479  0.76643531  0.05732296     0.78800
H897        H  0.26764476  0.76209327  0.17911609     0.41900
H898        H  0.21987775  0.71042869  0.17844219     0.40800
H899        H  0.14567304  0.66530139  0.27912567     0.40500
H900        H  0.16184149  0.64904907  0.01646363     0.38400
H901        H  0.21602505  0.72989069  0.11049564     0.41600
H902        H  0.26200019  0.78395683  0.11102674     0.36400
H903        H  0.31966400  0.84172997  0.01127465     0.42500
H904        H  0.33776705  0.82408840  0.27287983     0.38900
H905        H  0.15460469  0.65401100  0.05792094     0.43800
H906        H  0.29571292  0.80617429  0.10888984     0.42500
H907        H  0.33224863  0.83255552  0.23242171     0.42700
H908        H  0.18711480  0.68535246  0.18061741     0.43000
O909        O  0.03965138  0.81967419  0.23445382    -0.75900
O910        O  0.07386088  0.81597776  0.27001283    -0.54800
C911        C  0.06621434  0.82781944  0.24387258     0.77900
O912        O  0.44112259  0.76887078  0.05648956    -0.60500
O913        O  0.40700475  0.73213654  0.01937835    -0.53500
C914        C  0.41459086  0.75096269  0.04631495     0.69900
O915        O  0.03985731  0.81893303  0.05587292    -0.75000
O916        O  0.07401976  0.81634128  0.01878911    -0.55600
C917        C  0.06640736  0.82763928  0.04568392     0.75900
O918        O  0.44101511  0.76880520  0.23313151    -0.60200
O919        O  0.40697343  0.73239955  0.27066849    -0.53300
C920        C  0.41451079  0.75103798  0.24352892     0.72500
Zr921      Zr  0.49036350  0.78352789  0.25523083     2.54700
O922        O  0.48919765  0.82889151  0.26108436    -0.80700
O923        O  0.49055461  0.78580668  0.18637138    -0.94100
Zr924      Zr  0.49049048  0.78340582  0.03455352     2.64700
O925        O  0.49045055  0.82943227  0.02990983    -0.99100
O926        O  0.49080143  0.78461495  0.10338561    -0.81200
O927        O  0.01888821  0.79836010  0.31151965    -0.84500
O928        O  0.46208171  0.76992427  0.31158006    -2.19200
O929        O  0.44128278  0.67380637  0.23271317    -0.67900
O930        O  0.40716120  0.67613243  0.27014909    -0.52500
C931        C  0.41475187  0.66506230  0.24301619     0.70900
O932        O  0.03978228  0.72156638  0.05504122    -0.60800
O933        O  0.07396008  0.75924885  0.01911226    -0.52800
C934        C  0.06634469  0.73987016  0.04541314     0.72700
O935        O  0.44091061  0.67319302  0.05543290    -0.72200
O936        O  0.40668541  0.67585523  0.01866128    -0.50900
C937        C  0.41435205  0.66457884  0.04544203     0.74100
O938        O  0.03986236  0.72212650  0.23380503    -0.67500
O939        O  0.07396476  0.75940312  0.27029434    -0.54700
C940        C  0.06639622  0.74028991  0.24368773     0.72400
Zr941      Zr  0.49056577  0.70855672  0.25495608     2.77500
O942        O  0.49000849  0.66214356  0.25741343    -0.98300
O943        O  0.49160806  0.70948908  0.18617431    -0.79100
Zr944      Zr  0.49045935  0.70836114  0.03435009     2.70100
O945        O  0.48919100  0.66172936  0.02985693    -0.80400
O946        O  0.49159151  0.70775976  0.10323818    -0.99400
Zr947      Zr  0.04674501  0.77412221  0.31139664     2.21500
Zr948      Zr  0.43436059  0.71782731  0.31141467     2.11100
O949        O  0.46223162  0.69358524  0.31131110    -2.48100
O950        O  0.01896657  0.72201076  0.31136098    -0.80100
O951        O  0.46197445  0.73173085  0.25417769    -0.72300
O952        O  0.01886322  0.76007392  0.03522397    -2.33300
O953        O  0.01882265  0.76025716  0.25429183    -2.29500
O954        O  0.46194579  0.73161474  0.03536998    -0.74100
H955        H  0.44936331  0.77818293  0.31158102     0.77900
H956        H  0.03137850  0.76626753  0.05728813     0.79000
H957        H  0.44959142  0.67259487  0.31128530     0.81200
H958        H  0.03133777  0.76656709  0.23222847     0.77900
H959        H  0.98621470  0.76466757  0.11085134     0.41900
H960        H  0.47434142  0.70919359  0.11112711     0.40800
H961        H  0.00539391  0.66553995  0.01235484     0.40500
H962        H  0.47200307  0.64880580  0.27161791     0.38400
H963        H  0.48958443  0.72662609  0.17955368     0.41600
H964        H  0.00697483  0.78292649  0.17855845     0.36400
H965        H  0.00654095  0.84174509  0.27669299     0.42500
H966        H  0.47305889  0.82488453  0.01436685     0.38900
H967        H  0.48582991  0.65477218  0.23101993     0.43800
H968        H  0.49728611  0.80657069  0.18048142     0.42500
H969        H  0.48531777  0.83273217  0.05573482     0.42700
H970        H  0.48648719  0.68750101  0.10976904     0.43000
O971        O  0.26542818  0.94690769  0.23467375    -0.75900
O972        O  0.22788614  0.91270250  0.27074352    -0.54800
C973        C  0.24717399  0.92035241  0.24433558     0.77900
O974        O  0.31313754  0.54529713  0.05680820    -0.60500
O975        O  0.31071649  0.57933943  0.01931577    -0.53500
C976        C  0.32187497  0.57177734  0.04634763     0.69900
O977        O  0.26477276  0.94691212  0.05632061    -0.75000
O978        O  0.22773611  0.91277685  0.01955238    -0.55600
C979        C  0.24677610  0.92037770  0.04626376     0.75900
O980        O  0.31342002  0.54568418  0.23317805    -0.60200
O981        O  0.31082124  0.57977385  0.27034410    -0.53300
C982        C  0.32202957  0.57223765  0.24329482     0.72500
Zr983      Zr  0.27888006  0.99626444  0.25556341     2.54700
O984        O  0.32557185  0.99775286  0.26141510    -0.80700
O985        O  0.28084661  0.49580797  0.18673119    -0.94100
Zr986      Zr  0.27826853  0.99608698  0.03479193     2.64700
O987        O  0.32445755  0.99643128  0.02973629    -0.99100
O988        O  0.27914739  0.49523302  0.10360303    -0.81200
O989        O  0.26494961  0.96765759  0.31183139    -0.84500
O990        O  0.29343655  0.52455351  0.31188295    -2.19200
O991        O  0.21826171  0.54543138  0.23300210    -0.67900
O992        O  0.25461099  0.57960182  0.27050577    -0.52500
C993        C  0.23597038  0.57197747  0.24334852     0.70900
O994        O  0.16729745  0.94707425  0.05532862    -0.60800
O995        O  0.17060963  0.91285256  0.01926551    -0.52800
C996        C  0.15892184  0.92052839  0.04560460     0.72700
O997        O  0.21768453  0.54547721  0.05587326    -0.72200
O998        O  0.25457904  0.57962694  0.01903076    -0.50900
C999        C  0.23567725  0.57200076  0.04585534     0.74100
O1000       O  0.16759303  0.94689552  0.23403103    -0.67500
O1001       O  0.17071117  0.91271216  0.27042656    -0.54700
C1002       C  0.15911614  0.92034879  0.24390706     0.72400
Zr1003     Zr  0.20373545  0.99605249  0.25490510     2.77500
O1004       O  0.15787964  0.99653148  0.25798614    -0.98300
O1005       O  0.20381132  0.99495145  0.18611070    -0.79100
Zr1006     Zr  0.20321308  0.99613519  0.03408868     2.70100
O1007       O  0.15737045  0.99642814  0.02857409    -0.80400
O1008       O  0.20060343  0.99473680  0.10289112    -0.99400
Zr1009     Zr  0.21282450  0.93978540  0.31162239     2.21500
Zr1010     Zr  0.26902408  0.55222758  0.31149462     2.11100
O1011       O  0.21690710  0.52445638  0.31114022    -2.48100
O1012       O  0.18859955  0.96759659  0.31119662    -0.80100
O1013       O  0.25547533  0.52461608  0.25431921    -0.72300
O1014       O  0.22656021  0.96777909  0.03531611    -2.33300
O1015       O  0.22712325  0.96774037  0.25456324    -2.29500
O1016       O  0.25499099  0.52462071  0.03545905    -0.74100
H1017       H  0.31441600  0.53726677  0.31192922     0.77900
H1018       H  0.22022655  0.95531904  0.05743138     0.79000
H1019       H  0.20856585  0.53710488  0.31104325     0.81200
H1020       H  0.22089451  0.95519760  0.23252609     0.78800
H1021       H  0.26461073  0.00090458  0.11129353     0.41900
H1022       H  0.21936725  0.51171474  0.11111991     0.40800
H1023       H  0.14551717  0.98041123  0.01055871     0.40500
H1024       H  0.16282169  0.51502983  0.27110618     0.38400
H1025       H  0.22373692  0.49900493  0.17953816     0.41600
H1026       H  0.26131854  0.97976960  0.17899829     0.36400
H1027       H  0.32132989  0.98083967  0.27778317     0.42500
H1028       H  0.33812655  0.51542331  0.01775409     0.38900
H1029       H  0.15400756  0.99969278  0.23144028     0.43800
H1030       H  0.29438298  0.98845755  0.18084579     0.42500
H1031       H  0.33145873  0.99847860  0.05621204     0.42700
H1032       H  0.18565249  0.00019838  0.10909363     0.43000
C1033       C  0.24819186  0.85239168  0.39987702     0.79700
N1034       N  0.24562922  0.87346602  0.38111668    -0.78600
C1035       C  0.24824522  0.89702703  0.40016951     0.82100
N1036       N  0.25232451  0.89892224  0.43832634    -0.78600
C1037       C  0.25391574  0.87743144  0.45751571     0.82200
N1038       N  0.25229897  0.85440881  0.43806527    -0.80300
C1039       C  0.24793383  0.85213953  0.55673913     0.79700
N1040       N  0.24564131  0.87328899  0.57570568    -0.78600
C1041       C  0.24854345  0.89702589  0.55686212     0.82100
N1042       N  0.25262223  0.89901114  0.51867960    -0.78600
C1043       C  0.25390741  0.87739930  0.49930192     0.82200
N1044       N  0.25199914  0.85420718  0.51857051    -0.80300
C1045       C  0.13423837  0.89710504  0.55649877     0.79700
N1046       N  0.13204754  0.89922764  0.51834797    -0.78600
C1047       C  0.10891691  0.87787945  0.49900210     0.82100
N1048       N  0.08746218  0.85481223  0.51831328    -0.78600
C1049       C  0.08951865  0.85260893  0.55646626     0.82200
N1050       N  0.11321037  0.87349610  0.57536149    -0.80300
C1051       C  0.13408920  0.89729179  0.39965446     0.79700
N1052       N  0.13189376  0.89939359  0.43780488    -0.78600
C1053       C  0.10890757  0.87788748  0.45716656     0.82100
N1054       N  0.08761716  0.85468575  0.43787268    -0.78600
C1055       C  0.08968500  0.85249575  0.39972311     0.82200
N1056       N  0.11323165  0.87355907  0.38079903    -0.80300
C1057       C  0.08966887  0.73841829  0.39954068     0.79700
N1058       N  0.08775475  0.73452645  0.43776464    -0.78600
C1059       C  0.10920999  0.73295461  0.45715395     0.82100
N1060       N  0.13218905  0.73439793  0.43784591    -0.78600
C1061       C  0.13419769  0.73827736  0.39963740     0.82200
N1062       N  0.11320766  0.74085278  0.38065949    -0.80300
C1063       C  0.08975537  0.73886727  0.55637543     0.79700
N1064       N  0.11317874  0.74116419  0.57542358    -0.78600
C1065       C  0.13408183  0.73829236  0.55666481     0.82100
N1066       N  0.13207763  0.73427881  0.51845026    -0.78600
C1067       C  0.10921560  0.73301896  0.49898139     0.82200
N1068       N  0.08786225  0.73486102  0.51819586    -0.80300
C1069       C  0.39141829  0.64027883  0.55576543     0.79700
N1070       N  0.39364441  0.63788819  0.51775080    -0.78600
C1071       C  0.37233501  0.61467435  0.49860946     0.82100
N1072       N  0.34917852  0.59335215  0.51787853    -0.78600
C1073       C  0.34679904  0.59562223  0.55589708     0.82200
N1074       N  0.36769825  0.61939883  0.57468803    -0.80300
C1075       C  0.39116898  0.63982891  0.39955840     0.79700
N1076       N  0.36745656  0.61878363  0.38088055    -0.78600
C1077       C  0.34673368  0.59510689  0.39998055     0.82100
N1078       N  0.34921216  0.59305512  0.43798507    -0.78600
C1079       C  0.37233692  0.61453960  0.45701434     0.82200
N1080       N  0.39352185  0.63768884  0.43761001    -0.80300
C1081       C  0.34689252  0.75296114  0.40002571     0.79700
N1082       N  0.36776873  0.75007396  0.38118811    -0.78600
C1083       C  0.39127973  0.75250280  0.40017936     0.82100
N1084       N  0.39331437  0.75676009  0.43825858    -0.78600
C1085       C  0.37201747  0.75868705  0.45741760     0.82200
N1086       N  0.34905436  0.75722319  0.43811601    -0.80300
C1087       C  0.34655945  0.75241318  0.55629344     0.79700
N1088       N  0.36750732  0.74970818  0.57519312    -0.78600
C1089       C  0.39116923  0.75244012  0.55628230     0.82100
N1090       N  0.39329261  0.75681542  0.51822834    -0.78600
C1091       C  0.37192937  0.75857032  0.49901053     0.82200
N1092       N  0.34880020  0.75679759  0.51823307    -0.80300
C1093       C  0.23444643  0.59526590  0.55607390     0.79700
N1094       N  0.23710868  0.61891269  0.57498704    -0.78600
C1095       C  0.23426211  0.63980466  0.55613932     0.82100
N1096       N  0.22978445  0.63748971  0.51807980    -0.78600
C1097       C  0.22811675  0.61440223  0.49882201     0.82200
N1098       N  0.23002103  0.59310732  0.51801802    -0.80300
C1099       C  0.23419540  0.59524692  0.39984289     0.79700
N1100       N  0.23678781  0.61886289  0.38097843    -0.78600
C1101       C  0.23397810  0.63972682  0.39993839     0.82100
N1102       N  0.22963875  0.63743894  0.43800916    -0.78600
C1103       C  0.22803136  0.61437472  0.45720169     0.82200
N1104       N  0.22987755  0.59308113  0.43791974    -0.80300
O1105       O  0.26509268  0.81946255  0.38854546    -0.75900
O1106       O  0.22736118  0.81585312  0.35269655    -0.54800
C1107       C  0.24674524  0.82765282  0.37899177     0.77900
O1108       O  0.31305943  0.76872494  0.56653841    -0.60500
O1109       O  0.31069570  0.73225645  0.60397273    -0.53500
C1110       C  0.32179900  0.75095080  0.57688656     0.69900
O1111       O  0.26458751  0.81897753  0.56745232    -0.75000
O1112       O  0.22733414  0.81583712  0.60401408    -0.55600
C1113       C  0.24646624  0.82738159  0.57741823     0.75900
O1114       O  0.31339242  0.76930495  0.38962250    -0.60200
O1115       O  0.31089860  0.73265524  0.35244873    -0.53300
C1116       C  0.32210807  0.75148487  0.37939530     0.72500
Zr1117     Zr  0.27844892  0.78357146  0.36749142     2.54700
O1118       O  0.32445148  0.82943864  0.36094661    -0.80700
O1119       O  0.28078094  0.78568467  0.43633503    -0.94100
Zr1120     Zr  0.27813172  0.78316715  0.58825137     2.64700
O1121       O  0.32458214  0.82896254  0.59201277    -0.99100
O1122       O  0.27768215  0.78308507  0.51937132    -0.81200
O1123       O  0.26460737  0.79817778  0.64451161    -0.84500
O1124       O  0.29311369  0.76983402  0.64459100    -2.19200
O1125       O  0.21794215  0.67352324  0.39017483    -0.67900
O1126       O  0.25397596  0.67555283  0.35213382    -0.52500
C1127       C  0.23546472  0.66455984  0.37945347     0.70900
O1128       O  0.16711200  0.72136706  0.56792169    -0.60800
O1129       O  0.17039056  0.75886080  0.60402806    -0.52800
C1130       C  0.15876056  0.73960036  0.57758541     0.72700
O1131       O  0.21751672  0.67297053  0.56703354    -0.72200
O1132       O  0.25475769  0.67610017  0.60347426    -0.50900
C1133       C  0.23570058  0.66460421  0.57682085     0.74100
O1134       O  0.16741890  0.72164052  0.38899886    -0.67500
O1135       O  0.17043473  0.75877193  0.35235506    -0.54700
C1136       C  0.15893449  0.73967666  0.37897532     0.72400
Zr1137     Zr  0.20340530  0.70835309  0.36825635     2.77500
O1138       O  0.15744703  0.66205158  0.36524751    -0.98300
O1139       O  0.20248051  0.70918470  0.43710540    -0.79100
Zr1140     Zr  0.20306445  0.70794889  0.58887632     2.70100
O1141       O  0.15764310  0.66144356  0.59426075    -0.80400
O1142       O  0.20023937  0.70626786  0.52008225    -0.99400
Zr1143     Zr  0.21253802  0.77376570  0.64487771     2.21500
Zr1144     Zr  0.26885233  0.71772256  0.64491077     2.11100
O1145       O  0.21673053  0.69332289  0.64522337    -2.48100
O1146       O  0.18830979  0.72165495  0.64521029    -0.80100
O1147       O  0.25521145  0.73175939  0.36881142    -0.72300
O1148       O  0.22639567  0.75968807  0.58774813    -2.33300
O1149       O  0.22671365  0.76008199  0.36865669    -2.29500
O1150       O  0.25486859  0.73138713  0.58772137    -0.74100
H1151       H  0.31410188  0.77817126  0.64458610     0.77900
H1152       H  0.22005857  0.76585501  0.56567437     0.79000
H1153       H  0.20844727  0.67234156  0.64522324     0.81200
H1154       H  0.22048522  0.76643523  0.39065608     0.78800
H1155       H  0.26766545  0.76209281  0.51244841     0.41900
H1156       H  0.21987788  0.71042781  0.51177228     0.40800
H1157       H  0.14566678  0.66530407  0.61243509     0.40500
H1158       H  0.16184016  0.64904876  0.34980278     0.38400
H1159       H  0.21604965  0.72989196  0.44382662     0.41600
H1160       H  0.26200138  0.78396863  0.44435962     0.36400
H1161       H  0.31966451  0.84172905  0.34460359     0.42500
H1162       H  0.33776649  0.82408659  0.60622146     0.38900
H1163       H  0.15460378  0.65401357  0.39125903     0.43800
H1164       H  0.29571926  0.80616499  0.44222623     0.42500
H1165       H  0.33225323  0.83255155  0.56575931     0.42700
H1166       H  0.18711763  0.68534546  0.51395015     0.43000
O1167       O  0.03964917  0.81967240  0.56778456    -0.75900
O1168       O  0.07385887  0.81597704  0.60334436    -0.54800
C1169       C  0.06621219  0.82781835  0.57720381     0.77900
O1170       O  0.44112109  0.76887065  0.38981923    -0.60500
O1171       O  0.40700316  0.73213283  0.35271216    -0.53500
C1172       C  0.41458932  0.75096119  0.37964619     0.69900
O1173       O  0.03985861  0.81893277  0.38921166    -0.75000
O1174       O  0.07402054  0.81634628  0.35212073    -0.55600
C1175       C  0.06640838  0.82764186  0.37901881     0.75900
O1176       O  0.44101686  0.76880306  0.56645756    -0.60200
O1177       O  0.40697575  0.73240286  0.60400159    -0.53300
C1178       C  0.41451282  0.75103785  0.57685820     0.72500
Zr1179     Zr  0.49036503  0.78353111  0.58856287     2.54700
O1180       O  0.48919125  0.82889074  0.59441277    -0.80700
O1181       O  0.49056349  0.78580914  0.51970288    -0.94100
Zr1182     Zr  0.49048925  0.78340175  0.36788896     2.64700
O1183       O  0.49044699  0.82942730  0.36325155    -0.99100
O1184       O  0.49080047  0.78459744  0.43672175    -0.81200
O1185       O  0.01888678  0.79835811  0.64485352    -0.84500
O1186       O  0.46208255  0.76992837  0.64491210    -2.19200
O1187       O  0.44128046  0.67380946  0.56604586    -0.67900
O1188       O  0.40715962  0.67613559  0.60348332    -0.52500
C1189       C  0.41474955  0.66506511  0.57634981     0.70900
O1190       O  0.03978153  0.72156681  0.38837723    -0.60800
O1191       O  0.07395939  0.75924867  0.35244759    -0.52800
C1192       C  0.06634402  0.73987007  0.37874859     0.72700
O1193       O  0.44091065  0.67319365  0.38877030    -0.72200
O1194       O  0.40668541  0.67585228  0.35199414    -0.50900
C1195       C  0.41435207  0.66457810  0.37877760     0.74100
O1196       O  0.03986243  0.72212090  0.56714552    -0.67500
O1197       O  0.07396560  0.75940314  0.60362692    -0.54700
C1198       C  0.06639654  0.74028633  0.57702508     0.72400
Zr1199     Zr  0.49056463  0.70855939  0.58828817     2.77500
O1200       O  0.49000558  0.66214502  0.59073626    -0.98300
O1201       O  0.49160954  0.70950262  0.51950682    -0.79100
Zr1202     Zr  0.49045998  0.70835797  0.36768339     2.70100
O1203       O  0.48919259  0.66172591  0.36319853    -0.80400
O1204       O  0.49159719  0.70776379  0.43657108    -0.99400
Zr1205     Zr  0.04674391  0.77412047  0.64472724     2.21500
Zr1206     Zr  0.43436114  0.71783093  0.64474908     2.11100
O1207       O  0.46223120  0.69358850  0.64464385    -2.48100
O1208       O  0.01896526  0.72200890  0.64469259    -0.80100
O1209       O  0.46197432  0.73173415  0.58751154    -0.72300
O1210       O  0.01886388  0.76007655  0.36856001    -2.33300
O1211       O  0.01882129  0.76025602  0.58762254    -2.29500
O1212       O  0.46194546  0.73161065  0.36870286    -0.74100
H1213       H  0.44936407  0.77818692  0.64491229     0.77900
H1214       H  0.03137899  0.76626962  0.39062435     0.79000
H1215       H  0.44959090  0.67259813  0.64461776     0.81200
H1216       H  0.03133641  0.76656573  0.56555909     0.77900
H1217       H  0.98628438  0.76470005  0.44418802     0.41900
H1218       H  0.47435569  0.70921320  0.44445853     0.40800
H1219       H  0.00536143  0.66553457  0.34560921     0.40500
H1220       H  0.47198839  0.64880027  0.60491498     0.38400
H1221       H  0.48948923  0.72658368  0.51289040     0.41600
H1222       H  0.00696906  0.78292482  0.51189232     0.36400
H1223       H  0.00654906  0.84174927  0.61001511     0.42500
H1224       H  0.47306315  0.82488316  0.34769376     0.38900
H1225       H  0.48584882  0.65478666  0.56433607     0.43800
H1226       H  0.49730860  0.80657578  0.51381077     0.42500
H1227       H  0.48530016  0.83271831  0.38907279     0.42700
H1228       H  0.48647837  0.68750159  0.44310592     0.43000
O1229       O  0.26543161  0.94690945  0.56800757    -0.75900
O1230       O  0.22788897  0.91270358  0.60407581    -0.54800
C1231       C  0.24717794  0.92035400  0.57766928     0.77900
O1232       O  0.31313508  0.54529949  0.39014373    -0.60500
O1233       O  0.31071798  0.57934183  0.35264728    -0.53500
C1234       C  0.32187371  0.57177956  0.37968209     0.69900
O1235       O  0.26477363  0.94691250  0.38965447    -0.75000
O1236       O  0.22773806  0.91277692  0.35288565    -0.55600
C1237       C  0.24677776  0.92037795  0.37959727     0.75900
O1238       O  0.31341620  0.54568335  0.56650908    -0.60200
O1239       O  0.31082023  0.57977230  0.60367994    -0.53300
C1240       C  0.32202746  0.57223673  0.57662859     0.72500
Zr1241     Zr  0.27887974  0.99626515  0.58889676     2.54700
O1242       O  0.32557184  0.99775527  0.59475637    -0.80700
O1243       O  0.28084429  0.49580760  0.52006224    -0.94100
Zr1244     Zr  0.27826968  0.99608799  0.36812694     2.64700
O1245       O  0.32445966  0.99643416  0.36307475    -0.99100
O1246       O  0.27916809  0.49524004  0.43693541    -0.81200
O1247       O  0.26495005  0.96765740  0.64516378    -0.84500
O1248       O  0.29343405  0.52455134  0.64521506    -2.19200
O1249       O  0.21825737  0.54542896  0.56633551    -0.67900
O1250       O  0.25460741  0.57959831  0.60383961    -0.52500
C1251       C  0.23596687  0.57197461  0.57668234     0.70900
O1252       O  0.16730083  0.94707691  0.38866884    -0.60800
O1253       O  0.17061008  0.91285559  0.35260121    -0.52800
C1254       C  0.15892337  0.92053124  0.37894198     0.72700
O1255       O  0.21768860  0.54547822  0.38920957    -0.72200
O1256       O  0.25458113  0.57962739  0.35236410    -0.50900
C1257       C  0.23568055  0.57200152  0.37919006     0.74100
O1258       O  0.16758984  0.94689518  0.56736593    -0.67500
O1259       O  0.17071038  0.91271204  0.60375891    -0.54700
C1260       C  0.15911380  0.92034858  0.57724121     0.72400
Zr1261     Zr  0.20373302  0.99605144  0.58823927     2.77500
O1262       O  0.15787693  0.99653070  0.59131895    -0.98300
O1263       O  0.20380768  0.99494932  0.51944513    -0.79100
Zr1264     Zr  0.20321520  0.99613708  0.36742580     2.70100
O1265       O  0.15737367  0.99643122  0.36190301    -0.80400
O1266       O  0.20060071  0.99474556  0.43622851    -0.99400
Zr1267     Zr  0.21282506  0.93978503  0.64495396     2.21500
Zr1268     Zr  0.26902188  0.55222563  0.64482903     2.11100
O1269       O  0.21690471  0.52445409  0.64447369    -2.48100
O1270       O  0.18859846  0.96759472  0.64452991    -0.80100
O1271       O  0.25547220  0.52461459  0.58765333    -0.72300
O1272       O  0.22656173  0.96778025  0.36865419    -2.33300
O1273       O  0.22712269  0.96774073  0.58789548    -2.29500
O1274       O  0.25499323  0.52462217  0.36879084    -0.74100
H1275       H  0.31441351  0.53726447  0.64526105     0.77900
H1276       H  0.22022849  0.95532023  0.39076967     0.79000
H1277       H  0.20856338  0.53710257  0.64437713     0.81200
H1278       H  0.22089422  0.95519811  0.56585814     0.78800
H1279       H  0.26474886  0.00108224  0.44463424     0.41900
H1280       H  0.21938183  0.51170084  0.44445189     0.40800
H1281       H  0.14551263  0.98039920  0.34391015     0.40500
H1282       H  0.16281663  0.51502594  0.60443934     0.38400
H1283       H  0.22376908  0.49908292  0.51287510     0.41600
H1284       H  0.26132571  0.97977371  0.51232789     0.36400
H1285       H  0.32132846  0.98084030  0.61112199     0.42500
H1286       H  0.33813265  0.51543497  0.35109488     0.38900
H1287       H  0.15400718  0.99969604  0.56477384     0.43800
H1288       H  0.29439030  0.98846247  0.51418184     0.42500
H1289       H  0.33145548  0.99847264  0.38955204     0.42700
H1290       H  0.18566297  0.00022602  0.44242703     0.43000
C1291       C  0.24819062  0.85239056  0.73320854     0.79700
N1292       N  0.24562780  0.87346507  0.71444887    -0.78600
C1293       C  0.24824595  0.89702693  0.73350191     0.82100
N1294       N  0.25232713  0.89892266  0.77165843    -0.78600
C1295       C  0.25391841  0.87743175  0.79084739     0.82200
N1296       N  0.25230000  0.85440849  0.77139649    -0.80300
C1297       C  0.24793370  0.85213815  0.89007056     0.79700
N1298       N  0.24563811  0.87328591  0.90903677    -0.78600
C1299       C  0.24854016  0.89702287  0.89019376     0.82100
N1300       N  0.25262165  0.89900964  0.85201162    -0.78600
C1301       C  0.25390962  0.87739923  0.83263386     0.82200
N1302       N  0.25200181  0.85420725  0.85190236    -0.80300
C1303       C  0.13423630  0.89710389  0.88982945     0.79700
N1304       N  0.13204570  0.89922598  0.85167846    -0.78600
C1305       C  0.10891496  0.87787773  0.83233269     0.82100
N1306       N  0.08745996  0.85481091  0.85164432    -0.78600
C1307       C  0.08951662  0.85260803  0.88979748     0.82200
N1308       N  0.11320828  0.87349528  0.90869240    -0.80300
C1309       C  0.13408946  0.89728834  0.73298514     0.79700
N1310       N  0.13189335  0.89939050  0.77113540    -0.78600
C1311       C  0.10890620  0.87788525  0.79049687     0.82100
N1312       N  0.08761538  0.85468400  0.77120270    -0.78600
C1313       C  0.08968387  0.85249358  0.73305328     0.82200
N1314       N  0.11323156  0.87355593  0.71412955    -0.80300
C1315       C  0.08966935  0.73841760  0.73286998     0.79700
N1316       N  0.08775474  0.73452556  0.77109392    -0.78600
C1317       C  0.10920896  0.73295222  0.79048371     0.82100
N1318       N  0.13218752  0.73439419  0.77117591    -0.78600
C1319       C  0.13419678  0.73827410  0.73296739     0.82200
N1320       N  0.11320777  0.74085102  0.71398912    -0.80300
C1321       C  0.08975529  0.73886938  0.88970431     0.79700
N1322       N  0.11317858  0.74116663  0.90875302    -0.78600
C1323       C  0.13408129  0.73829341  0.88999556     0.82100
N1324       N  0.13207657  0.73427782  0.85178120    -0.78600
C1325       C  0.10921458  0.73301758  0.83231143     0.82200
N1326       N  0.08786164  0.73486110  0.85152503    -0.80300
C1327       C  0.39141674  0.64027850  0.88909880     0.79700
N1328       N  0.39364186  0.63788902  0.85108371    -0.78600
C1329       C  0.37233207  0.61467569  0.83194195     0.82100
N1330       N  0.34917606  0.59335276  0.85121128    -0.78600
C1331       C  0.34679763  0.59562186  0.88923042     0.82200
N1332       N  0.36769722  0.61939801  0.90802154    -0.80300
C1333       C  0.39116868  0.63982855  0.73288950     0.79700
N1334       N  0.36745791  0.61878153  0.71421093    -0.78600
C1335       C  0.34673508  0.59510472  0.73331107     0.82100
N1336       N  0.34921188  0.59305466  0.77131635    -0.78600
C1337       C  0.37233490  0.61454072  0.79034637     0.82200
N1338       N  0.39351984  0.63769008  0.77094194    -0.80300
C1339       C  0.34689371  0.75296335  0.73335938     0.79700
N1340       N  0.36777065  0.75007682  0.71452289    -0.78600
C1341       C  0.39128130  0.75250593  0.73351522     0.82100
N1342       N  0.39331489  0.75676275  0.77159445    -0.78600
C1343       C  0.37201724  0.75868901  0.79075247     0.82200
N1344       N  0.34905441  0.75722492  0.77144983    -0.80300
C1345       C  0.34655784  0.75241313  0.88962783     0.79700
N1346       N  0.36750560  0.74970801  0.90852771    -0.78600
C1347       C  0.39116787  0.75244064  0.88961718     0.82100
N1348       N  0.39329150  0.75681656  0.85156335    -0.78600
C1349       C  0.37192834  0.75857149  0.83234535     0.82200
N1350       N  0.34879889  0.75679821  0.85156761    -0.80300
C1351       C  0.23444329  0.59526411  0.88940617     0.79700
N1352       N  0.23710532  0.61891068  0.90831974    -0.78600
C1353       C  0.23425772  0.63980234  0.88947275     0.82100
N1354       N  0.22977935  0.63748729  0.85141324    -0.78600
C1355       C  0.22811162  0.61439987  0.83215498     0.82200
N1356       N  0.23001672  0.59310527  0.85135051    -0.80300
C1357       C  0.23419174  0.59524522  0.73317563     0.79700
N1358       N  0.23678686  0.61886254  0.71431186    -0.78600
C1359       C  0.23397799  0.63972684  0.73327209     0.82100
N1360       N  0.22963691  0.63743822  0.77134244    -0.78600
C1361       C  0.22802702  0.61437280  0.79053454     0.82200
N1362       N  0.22987227  0.59307871  0.77125227    -0.80300
O1363       O  0.26509037  0.81946068  0.72187739    -0.75900
O1364       O  0.22736005  0.81585197  0.68602675    -0.54800
C1365       C  0.24674350  0.82765142  0.71232284     0.77900
O1366       O  0.31305822  0.76872491  0.89987291    -0.60500
O1367       O  0.31069386  0.73225558  0.93730609    -0.53500
C1368       C  0.32179741  0.75095043  0.91022060     0.69900
O1369       O  0.26458743  0.81897660  0.90078466    -0.75000
O1370       O  0.22733401  0.81583644  0.93734610    -0.55600
C1371       C  0.24646608  0.82738052  0.91075004     0.75900
O1372       O  0.31339229  0.76930509  0.72295536    -0.60200
O1373       O  0.31090117  0.73265703  0.68578071    -0.53300
C1374       C  0.32210943  0.75148632  0.71272784     0.72500
Zr1375     Zr  0.27844761  0.78357000  0.70082520     2.54700
O1376       O  0.32445045  0.82943701  0.69428355    -0.80700
O1377       O  0.28078170  0.78568428  0.76966868    -0.94100
Zr1378     Zr  0.27813051  0.78316652  0.92158596     2.64700
O1379       O  0.32457964  0.82896342  0.92534819    -0.99100
O1380       O  0.27768092  0.78308514  0.85270605    -0.81200
O1381       O  0.26460652  0.79817775  0.97784557    -0.84500
O1382       O  0.29311395  0.76983338  0.97792413    -2.19200
O1383       O  0.21794254  0.67352298  0.72350785    -0.67900
O1384       O  0.25397775  0.67555341  0.68546897    -0.52500
C1385       C  0.23546571  0.66456015  0.71278760     0.70900
O1386       O  0.16711081  0.72136739  0.90125508    -0.60800
O1387       O  0.17038947  0.75886141  0.93736101    -0.52800
C1388       C  0.15875966  0.73960114  0.91091783     0.72700
O1389       O  0.21751165  0.67296757  0.90036990    -0.72200
O1390       O  0.25475553  0.67609933  0.93680639    -0.50900
C1391       C  0.23569666  0.66460213  0.91015494     0.74100
O1392       O  0.16741994  0.72163939  0.72233274    -0.67500
O1393       O  0.17043230  0.75876646  0.68568290    -0.54700
C1394       C  0.15893364  0.73967327  0.71230581     0.72400
Zr1395     Zr  0.20340512  0.70835147  0.70158808     2.77500
O1396       O  0.15744597  0.66205120  0.69857329    -0.98300
O1397       O  0.20247762  0.70917605  0.77043736    -0.79100
Zr1398     Zr  0.20306245  0.70794853  0.92221196     2.70100
O1399       O  0.15764117  0.66144318  0.92759785    -0.80400
O1400       O  0.20024318  0.70627296  0.85341756    -0.99400
Zr1401     Zr  0.21253706  0.77376603  0.97821218     2.21500
Zr1402     Zr  0.26885111  0.71772166  0.97824451     2.11100
O1403       O  0.21672955  0.69332309  0.97855845    -2.48100
O1404       O  0.18830828  0.72165528  0.97854580    -0.80100
O1405       O  0.25521121  0.73175810  0.70214500    -0.72300
O1406       O  0.22639444  0.75968765  0.92108340    -2.33300
O1407       O  0.22671228  0.76008039  0.70199008    -2.29500
O1408       O  0.25486655  0.73138641  0.92105615    -0.74100
H1409       H  0.31410212  0.77817047  0.97791847     0.77900
H1410       H  0.22005742  0.76585447  0.89900952     0.79000
H1411       H  0.20844593  0.67234173  0.97855861     0.81200
H1412       H  0.22048339  0.76643345  0.72398916     0.78800
H1413       H  0.26765902  0.76209286  0.84578291     0.41900
H1414       H  0.21988173  0.71043147  0.84511004     0.40800
H1415       H  0.14566870  0.66530145  0.94578156     0.40500
H1416       H  0.16183890  0.64904914  0.68312665     0.38400
H1417       H  0.21604886  0.72988219  0.77716167     0.41600
H1418       H  0.26200124  0.78396572  0.77769410     0.36400
H1419       H  0.31966378  0.84172860  0.67794248     0.42500
H1420       H  0.33777062  0.82408369  0.93953360     0.38900
H1421       H  0.15460164  0.65401102  0.72458381     0.43800
H1422       H  0.29571825  0.80616550  0.77555902     0.42500
H1423       H  0.33224093  0.83256373  0.89908964     0.42700
H1424       H  0.18712028  0.68535147  0.84728258     0.43000
O1425       O  0.03964786  0.81967283  0.90111833    -0.75900
O1426       O  0.07385787  0.81597544  0.93667475    -0.54800
C1427       C  0.06621079  0.82781763  0.91053567     0.77900
O1428       O  0.44112295  0.76887364  0.72315703    -0.60500
O1429       O  0.40700541  0.73213794  0.68604712    -0.53500
C1430       C  0.41459133  0.75096490  0.71298278     0.69900
O1431       O  0.03985719  0.81893336  0.72253828    -0.75000
O1432       O  0.07401978  0.81634170  0.68545469    -0.55600
C1433       C  0.06640721  0.82763991  0.71234892     0.75900
O1434       O  0.44101582  0.76880527  0.89979403    -0.60200
O1435       O  0.40697483  0.73240160  0.93733418    -0.53300
C1436       C  0.41451169  0.75103844  0.91019302     0.72500
Zr1437     Zr  0.49036467  0.78353025  0.92189485     2.54700
O1438       O  0.48919863  0.82889396  0.92774413    -0.80700
O1439       O  0.49055747  0.78580189  0.85303488    -0.94100
Zr1440     Zr  0.49049023  0.78340696  0.70122109     2.64700
O1441       O  0.49045048  0.82943366  0.69657554    -0.99100
O1442       O  0.49079957  0.78461155  0.77005321    -0.81200
O1443       O  0.01888738  0.79835825  0.97818564    -0.84500
O1444       O  0.46208287  0.76992767  0.97824448    -2.19200
O1445       O  0.44127935  0.67380768  0.89938046    -0.67900
O1446       O  0.40715862  0.67613501  0.93681668    -0.52500
C1447       C  0.41474840  0.66506410  0.90968365     0.70900
O1448       O  0.03978232  0.72156659  0.72170713    -0.60800
O1449       O  0.07395975  0.75924740  0.68577590    -0.52800
C1450       C  0.06634465  0.73986940  0.71207762     0.72700
O1451       O  0.44091035  0.67319141  0.72209859    -0.72200
O1452       O  0.40668516  0.67585592  0.68532959    -0.50900
C1453       C  0.41435174  0.66457830  0.71210898     0.74100
O1454       O  0.03986241  0.72212465  0.90047240    -0.67500
O1455       O  0.07396530  0.75940229  0.93695967    -0.54700
C1456       C  0.06639641  0.74028834  0.91035411     0.72400
Zr1457     Zr  0.49056428  0.70855829  0.92162105     2.77500
O1458       O  0.49000739  0.66214526  0.92407310    -0.98300
O1459       O  0.49160817  0.70949916  0.85283943    -0.79100
Zr1460     Zr  0.49045903  0.70836077  0.70101612     2.70100
O1461       O  0.48919177  0.66172987  0.69651115    -0.80400
O1462       O  0.49159210  0.70775496  0.76990396    -0.99400
Zr1463     Zr  0.04674420  0.77412016  0.97806071     2.21500
Zr1464     Zr  0.43436127  0.71783034  0.97808134     2.11100
O1465       O  0.46223155  0.69358802  0.97797731    -2.48100
O1466       O  0.01896610  0.72200828  0.97802698    -0.80100
O1467       O  0.46197417  0.73173332  0.92084377    -0.72300
O1468       O  0.01886377  0.76007453  0.70189140    -2.33300
O1469       O  0.01882101  0.76025534  0.92095645    -2.29500
O1470       O  0.46194642  0.73161557  0.70203681    -0.74100
H1471       H  0.44936455  0.77818645  0.97824505     0.77900
H1472       H  0.03137922  0.76626806  0.72395534     0.79000
H1473       H  0.44959127  0.67259766  0.97795160     0.81200
H1474       H  0.03133593  0.76656530  0.89889286     0.77900
H1475       H  0.98620747  0.76466808  0.77752108     0.41900
H1476       H  0.47434011  0.70918492  0.77779422     0.40800
H1477       H  0.00539803  0.66554322  0.67902466     0.40500
H1478       H  0.47199071  0.64880070  0.93825279     0.38400
H1479       H  0.48951912  0.72659849  0.84622200     0.41600
H1480       H  0.00698082  0.78294131  0.84522440     0.36400
H1481       H  0.00656506  0.84175869  0.94331805     0.42500
H1482       H  0.47307195  0.82489137  0.68100715     0.38900
H1483       H  0.48585038  0.65478569  0.89767340     0.43800
H1484       H  0.49730014  0.80656762  0.84714036     0.42500
H1485       H  0.48529491  0.83272253  0.72239282     0.42700
H1486       H  0.48649105  0.68749670  0.77643229     0.43000
O1487       O  0.26542932  0.94690624  0.90134298    -0.75900
O1488       O  0.22788340  0.91269968  0.93740637    -0.54800
C1489       C  0.24717393  0.92035047  0.91100176     0.77900
O1490       O  0.31313762  0.54529674  0.72347261    -0.60500
O1491       O  0.31071669  0.57933953  0.68598121    -0.53500
C1492       C  0.32187494  0.57177707  0.71301284     0.69900
O1493       O  0.26477477  0.94691268  0.72298817    -0.75000
O1494       O  0.22773976  0.91277771  0.68621788    -0.55600
C1495       C  0.24677898  0.92037832  0.71293017     0.75900
O1496       O  0.31341691  0.54568271  0.89984609    -0.60200
O1497       O  0.31081851  0.57977251  0.93701228    -0.53300
C1498       C  0.32202667  0.57223638  0.90996276     0.72500
Zr1499     Zr  0.27887848  0.99626327  0.92222986     2.54700
O1500       O  0.32556969  0.99775186  0.92809078    -0.80700
O1501       O  0.28085103  0.49580837  0.85339931    -0.94100
Zr1502     Zr  0.27827074  0.99608781  0.70145933     2.64700
O1503       O  0.32446185  0.99643680  0.69639748    -0.99100
O1504       O  0.27914305  0.49523234  0.77026716    -0.81200
O1505       O  0.26494752  0.96765575  0.97849694    -0.84500
O1506       O  0.29343353  0.52455098  0.97855056    -2.19200
O1507       O  0.21825715  0.54542768  0.89966584    -0.67900
O1508       O  0.25460549  0.57959711  0.93717174    -0.52500
C1509       C  0.23596531  0.57197326  0.91001383     0.70900
O1510       O  0.16729904  0.94707391  0.72199678    -0.60800
O1511       O  0.17061268  0.91285259  0.68593457    -0.52800
C1512       C  0.15892383  0.92052807  0.71227269     0.72700
O1513       O  0.21768284  0.54547602  0.72253904    -0.72200
O1514       O  0.25457964  0.57962587  0.68569912    -0.50900
C1515       C  0.23567679  0.57199967  0.71252237     0.74100
O1516       O  0.16758793  0.94689400  0.90069749    -0.67500
O1517       O  0.17070818  0.91271026  0.93708949    -0.54700
C1518       C  0.15911176  0.92034722  0.91057207     0.72400
Zr1519     Zr  0.20373280  0.99605046  0.92156923     2.77500
O1520       O  0.15787665  0.99652940  0.92464850    -0.98300
O1521       O  0.20380737  0.99494637  0.85277498    -0.79100
Zr1522     Zr  0.20321478  0.99613576  0.70075834     2.70100
O1523       O  0.15737367  0.99643094  0.69523647    -0.80400
O1524       O  0.20060241  0.99474268  0.76956076    -0.99400
Zr1525     Zr  0.21282239  0.93978337  0.97828510     2.21500
Zr1526     Zr  0.26902167  0.55222584  0.97816260     2.11100
O1527       O  0.21690472  0.52445423  0.97780563    -2.48100
O1528       O  0.18859693  0.96759417  0.97785996    -0.80100
O1529       O  0.25547327  0.52461451  0.92098675    -0.72300
O1530       O  0.22656250  0.96778009  0.70198563    -2.33300
O1531       O  0.22712145  0.96773883  0.92122618    -2.29500
O1532       O  0.25499071  0.52462005  0.70212490    -0.74100
H1533       H  0.31441302  0.53726395  0.97859667     0.77900
H1534       H  0.22022915  0.95531997  0.72410092     0.79000
H1535       H  0.20856324  0.53710253  0.97770853     0.81200
H1536       H  0.22089324  0.95519632  0.89918878     0.78800
H1537       H  0.26483778  0.00119322  0.77797122     0.41900
H1538       H  0.21937138  0.51171874  0.77778483     0.40800
H1539       H  0.14551849  0.98040967  0.67722746     0.40500
H1540       H  0.16282205  0.51503341  0.93775742     0.38400
H1541       H  0.22374812  0.49901617  0.84620689     0.41600
H1542       H  0.26133169  0.97976454  0.84565902     0.36400
H1543       H  0.32132260  0.98082867  0.94444179     0.42500
H1544       H  0.33811988  0.51541059  0.68439118     0.38900
H1545       H  0.15400380  0.99968866  0.89810224     0.43800
H1546       H  0.29439977  0.98846624  0.84751857     0.42500
H1547       H  0.33145667  0.99846818  0.72287443     0.42700
H1548       H  0.18566381  0.00022163  0.77576088     0.43000
C1549       C  0.74819022  0.35239031  0.06654235     0.79700
N1550       N  0.74562611  0.37346409  0.04778271    -0.78600
C1551       C  0.74824287  0.39702537  0.06683581     0.82100
N1552       N  0.75232412  0.39892127  0.10499227    -0.78600
C1553       C  0.75391683  0.37743107  0.12418098     0.82200
N1554       N  0.75229963  0.35440839  0.10473018    -0.80300
C1555       C  0.74793535  0.35213778  0.22340324     0.79700
N1556       N  0.74564060  0.37328571  0.24237047    -0.78600
C1557       C  0.74854173  0.39702254  0.22352792     0.82100
N1558       N  0.75262151  0.39900902  0.18534554    -0.78600
C1559       C  0.75390898  0.37739866  0.16596716     0.82200
N1560       N  0.75200192  0.35420676  0.18523490    -0.80300
C1561       C  0.63423473  0.39710363  0.22316292     0.79700
N1562       N  0.63204312  0.39922658  0.18501227    -0.78600
C1563       C  0.60891251  0.37787826  0.16566642     0.82100
N1564       N  0.58745834  0.35481055  0.18497783    -0.78600
C1565       C  0.58951580  0.35260676  0.22313073     0.82200
N1566       N  0.61320763  0.37349403  0.24202555    -0.80300
C1567       C  0.63408866  0.39728857  0.06631922     0.79700
N1568       N  0.63189127  0.39939137  0.10446920    -0.78600
C1569       C  0.60890412  0.37788586  0.12383047     0.82100
N1570       N  0.58761443  0.35468382  0.10453625    -0.78600
C1571       C  0.58968405  0.35249267  0.06638715     0.82200
N1572       N  0.61323187  0.37355521  0.04746376    -0.80300
C1573       C  0.58966906  0.23841757  0.06620447     0.79700
N1574       N  0.58775470  0.23452556  0.10442835    -0.78600
C1575       C  0.60920929  0.23295271  0.12381774     0.82100
N1576       N  0.63218803  0.23439523  0.10450989    -0.78600
C1577       C  0.63419701  0.23827500  0.06630145     0.82200
N1578       N  0.61320758  0.24085133  0.04732339    -0.80300
C1579       C  0.58975542  0.23886806  0.22303835     0.79700
N1580       N  0.61317896  0.24116526  0.24208672    -0.78600
C1581       C  0.63408180  0.23829250  0.22332846     0.82100
N1582       N  0.63207699  0.23427762  0.18511414    -0.78600
C1583       C  0.60921500  0.23301771  0.16564506     0.82200
N1584       N  0.58786202  0.23486078  0.18485902    -0.80300
C1585       C  0.89141475  0.14028022  0.22243079     0.79700
N1586       N  0.89364053  0.13788973  0.18441622    -0.78600
C1587       C  0.87233131  0.11467572  0.16527509     0.82100
N1588       N  0.84917532  0.09335294  0.18454429    -0.78600
C1589       C  0.84679609  0.09562305  0.22256291     0.82200
N1590       N  0.86769504  0.11939996  0.24135359    -0.80300
C1591       C  0.89116703  0.13982961  0.06622430     0.79700
N1592       N  0.86745589  0.11878323  0.04754574    -0.78600
C1593       C  0.84673319  0.09510633  0.06664563     0.82100
N1594       N  0.84921040  0.09305537  0.10465047    -0.78600
C1595       C  0.87233381  0.11454089  0.12368021     0.82200
N1596       N  0.89351864  0.13769043  0.10427627    -0.80300
C1597       C  0.84689300  0.25296205  0.06669273     0.79700
N1598       N  0.86776996  0.25007610  0.04785520    -0.78600
C1599       C  0.89128074  0.25250487  0.06684686     0.82100
N1600       N  0.89331464  0.25676120  0.10492620    -0.78600
C1601       C  0.87201709  0.25868703  0.12408508     0.82200
N1602       N  0.84905395  0.25722289  0.10478327    -0.80300
C1603       C  0.84655893  0.25241248  0.22296075     0.79700
N1604       N  0.86750669  0.24970739  0.24186047    -0.78600
C1605       C  0.89116847  0.25243924  0.22294961     0.82100
N1606       N  0.89329179  0.25681445  0.18489565    -0.78600
C1607       C  0.87192863  0.25856952  0.16567791     0.82200
N1608       N  0.84879962  0.25679695  0.18490046    -0.80300
C1609       C  0.73444328  0.09526394  0.22274062     0.79700
N1610       N  0.73710624  0.11891081  0.24165417    -0.78600
C1611       C  0.73426082  0.13980354  0.22280681     0.82100
N1612       N  0.72978354  0.13748926  0.18474720    -0.78600
C1613       C  0.72811497  0.11440157  0.16548899     0.82200
N1614       N  0.73001813  0.09310588  0.18468466    -0.80300
C1615       C  0.73419317  0.09524639  0.06650954     0.79700
N1616       N  0.73678690  0.11886300  0.04764545    -0.78600
C1617       C  0.73397835  0.13972745  0.06660571     0.82100
N1618       N  0.72963891  0.13743960  0.10467645    -0.78600
C1619       C  0.72802999  0.11437457  0.12386863     0.82200
N1620       N  0.72987490  0.09308039  0.10458634    -0.80300
O1621       O  0.76509183  0.31946197  0.05520968    -0.75900
O1622       O  0.72735856  0.31585065  0.01936285    -0.54800
C1623       C  0.74674349  0.32765135  0.04565696     0.77900
O1624       O  0.81305970  0.26872466  0.23320581    -0.60500
O1625       O  0.81069503  0.23225533  0.27063916    -0.53500
C1626       C  0.82179874  0.25095013  0.24355364     0.69900
O1627       O  0.76458822  0.31897500  0.23411485    -0.75000
O1628       O  0.72733616  0.31583591  0.27067825    -0.55600
C1629       C  0.74646765  0.32737964  0.24408158     0.75900
O1630       O  0.81339133  0.26930387  0.05629040    -0.60200
O1631       O  0.81090036  0.23265657  0.01911433    -0.53300
C1632       C  0.82210850  0.25148526  0.04606210     0.72500
Zr1633     Zr  0.77844793  0.28357008  0.03415851     2.54700
O1634       O  0.82445149  0.32943700  0.02762190    -0.80700
O1635       O  0.78077713  0.28567863  0.10300205    -0.94100
Zr1636     Zr  0.77813193  0.28316593  0.25491894     2.64700
O1637       O  0.82458030  0.32896242  0.25869061    -0.99100
O1638       O  0.77769144  0.28308851  0.18603901    -0.81200
O1639       O  0.76460709  0.29817656  0.31117823    -0.84500
O1640       O  0.79311446  0.26983297  0.31125781    -2.19200
O1641       O  0.71794267  0.17352370  0.05684141    -0.67900
O1642       O  0.75397696  0.17555330  0.01880144    -0.52500
C1643       C  0.73546549  0.16456050  0.04612080     0.70900
O1644       O  0.66711247  0.22136724  0.23458534    -0.60800
O1645       O  0.67039031  0.25886018  0.27069288    -0.52800
C1646       C  0.65876067  0.23960030  0.24424941     0.72700
O1647       O  0.71751585  0.17296928  0.23370176    -0.72200
O1648       O  0.75475709  0.17609887  0.27014192    -0.50900
C1649       C  0.73569971  0.16460296  0.24348877     0.74100
O1650       O  0.66741985  0.22164001  0.05566548    -0.67500
O1651       O  0.67043276  0.25876818  0.01901757    -0.54700
C1652       C  0.65893388  0.23967442  0.04563969     0.72400
Zr1653     Zr  0.70340521  0.20835225  0.03492099     2.77500
O1654       O  0.65744683  0.16205141  0.03190845    -0.98300
O1655       O  0.70247605  0.20917869  0.10376988    -0.79100
Zr1656     Zr  0.70306397  0.20794808  0.25554281     2.70100
O1657       O  0.65764320  0.16144235  0.26092985    -0.80400
O1658       O  0.70024238  0.20626693  0.18674845    -0.99400
Zr1659     Zr  0.71253780  0.27376492  0.31154345     2.21500
Zr1660     Zr  0.76885222  0.21772167  0.31157769     2.11100
O1661       O  0.71673050  0.19332266  0.31188983    -2.48100
O1662       O  0.68830893  0.22165425  0.31187622    -0.80100
O1663       O  0.75521120  0.23175831  0.03547804    -0.72300
O1664       O  0.72639584  0.25968710  0.25441453    -2.33300
O1665       O  0.72671279  0.26008095  0.03532271    -2.29500
O1666       O  0.75486810  0.23138595  0.25438854    -0.74100
H1667       H  0.81410268  0.27817017  0.31125272     0.77900
H1668       H  0.72005901  0.26585397  0.23234046     0.79000
H1669       H  0.70844695  0.17234129  0.31189007     0.81200
H1670       H  0.72048411  0.26643392  0.05732212     0.78800
H1671       H  0.76764958  0.26209585  0.17911461     0.41900
H1672       H  0.71987846  0.21041846  0.17844023     0.40800
H1673       H  0.64566488  0.16530447  0.27909876     0.40500
H1674       H  0.66184232  0.14904651  0.01647195     0.38400
H1675       H  0.71605758  0.22988247  0.11049404     0.41600
H1676       H  0.76200199  0.28397328  0.11102606     0.36400
H1677       H  0.81966869  0.34172482  0.01126743     0.42500
H1678       H  0.83777419  0.32407830  0.27286109     0.38900
H1679       H  0.65459867  0.15401625  0.05792210     0.43800
H1680       H  0.79572322  0.30615601  0.10889470     0.42500
H1681       H  0.83223724  0.33257224  0.23242973     0.42700
H1682       H  0.68711403  0.18534572  0.18061682     0.43000
O1683       O  0.53964694  0.31967169  0.23445264    -0.75900
O1684       O  0.57385693  0.31597315  0.27000710    -0.54800
C1685       C  0.56620996  0.32781599  0.24386889     0.77900
O1686       O  0.94112197  0.26887316  0.05648695    -0.60500
O1687       O  0.90700442  0.23213366  0.01938162    -0.53500
C1688       C  0.91459039  0.25096308  0.04631437     0.69900
O1689       O  0.53985758  0.31893090  0.05587447    -0.75000
O1690       O  0.57401937  0.31634229  0.01878583    -0.55600
C1691       C  0.56640735  0.32763891  0.04568268     0.75900
O1692       O  0.94101616  0.26880313  0.23312505    -0.60200
O1693       O  0.90697535  0.23240227  0.27066859    -0.53300
C1694       C  0.91451220  0.25103743  0.24352549     0.72500
Zr1695     Zr  0.99036462  0.28353152  0.25522987     2.54700
O1696       O  0.98919280  0.32889216  0.26108311    -0.80700
O1697       O  0.99056434  0.28581394  0.18637008    -0.94100
Zr1698     Zr  0.99048886  0.28340060  0.03455704     2.64700
O1699       O  0.99044495  0.32942569  0.02992578    -0.99100
O1700       O  0.99080102  0.28459244  0.10339005    -0.81200
O1701       O  0.51888577  0.29835641  0.31152089    -0.84500
O1702       O  0.96208242  0.26992787  0.31157930    -2.19200
O1703       O  0.94127763  0.17380824  0.23271255    -0.67900
O1704       O  0.90715743  0.17613717  0.27014808    -0.52500
C1705       C  0.91474675  0.16506571  0.24301528     0.70900
O1706       O  0.53978174  0.22156446  0.05504010    -0.60800
O1707       O  0.57395891  0.25924797  0.01911215    -0.52800
C1708       C  0.56634405  0.23986887  0.04541232     0.72700
O1709       O  0.94090904  0.17319412  0.05543731    -0.72200
O1710       O  0.90668433  0.17585187  0.01865890    -0.50900
C1711       C  0.91435055  0.16457842  0.04544366     0.74100
O1712       O  0.53986196  0.22212201  0.23380711    -0.67500
O1713       O  0.57396479  0.25940198  0.27029138    -0.54700
C1714       C  0.56639611  0.24028670  0.24368780     0.72400
Zr1715     Zr  0.99056298  0.20855790  0.25495342     2.77500
O1716       O  0.99000625  0.16214481  0.25740903    -0.98300
O1717       O  0.99160286  0.20949859  0.18617198    -0.79100
Zr1718     Zr  0.99045906  0.20835540  0.03434777     2.70100
O1719       O  0.98919350  0.16172399  0.02986221    -0.80400
O1720       O  0.99160154  0.20776072  0.10323493    -0.99400
Zr1721     Zr  0.54674182  0.27411742  0.31139157     2.21500
Zr1722     Zr  0.93436126  0.21783059  0.31141517     2.11100
O1723       O  0.96223039  0.19358705  0.31130969    -2.48100
O1724       O  0.51896463  0.22200528  0.31135736    -0.80100
O1725       O  0.96197418  0.23173436  0.25417781    -0.72300
O1726       O  0.51886295  0.26007296  0.03522477    -2.33300
O1727       O  0.51881848  0.26025394  0.25428749    -2.29500
O1728       O  0.96194548  0.23160925  0.03536956    -0.74100
H1729       H  0.94936381  0.27818632  0.31158008     0.77900
H1730       H  0.53137841  0.26626621  0.05728874     0.79000
H1731       H  0.94958963  0.17259674  0.31128346     0.81200
H1732       H  0.53133324  0.26656401  0.23222377     0.77900
H1733       H  0.48618722  0.26465875  0.11085439     0.41900
H1734       H  0.97436195  0.20921268  0.11112506     0.40800
H1735       H  0.50538901  0.16553768  0.01234370     0.40500
H1736       H  0.97198894  0.14880033  0.27158775     0.38400
H1737       H  0.98948479  0.22658107  0.17955602     0.41600
H1738       H  0.50696722  0.28293069  0.17855747     0.36400
H1739       H  0.50659072  0.34177450  0.27660832     0.42500
H1740       H  0.97307668  0.32488862  0.01433825     0.38900
H1741       H  0.98585052  0.15478480  0.23100960     0.43800
H1742       H  0.99732493  0.30658400  0.18047932     0.42500
H1743       H  0.98527048  0.33270093  0.05573882     0.42700
H1744       H  0.98648051  0.18749772  0.10976885     0.43000
O1745       O  0.76543071  0.44690582  0.23467755    -0.75900
O1746       O  0.72788404  0.41269897  0.27073962    -0.54800
C1747       C  0.74717528  0.42034997  0.24433598     0.77900
O1748       O  0.81313525  0.04529890  0.05680956    -0.60500
O1749       O  0.81071798  0.07934106  0.01931265    -0.53500
C1750       C  0.82187383  0.07177885  0.04634730     0.69900
O1751       O  0.76477108  0.44691108  0.05632229    -0.75000
O1752       O  0.72773713  0.41277593  0.01955099    -0.55600
C1753       C  0.74677570  0.42037661  0.04626395     0.75900
O1754       O  0.81341345  0.04568405  0.23317484    -0.60200
O1755       O  0.81081928  0.07977285  0.27034799    -0.53300
C1756       C  0.82202526  0.07223738  0.24329508     0.72500
Zr1757     Zr  0.77887826  0.49626266  0.25556316     2.54700
O1758       O  0.82556966  0.49775111  0.26142221    -0.80700
O1759       O  0.78085180  0.99580938  0.18673088    -0.94100
Zr1760     Zr  0.77826997  0.49608740  0.03479379     2.64700
O1761       O  0.82446076  0.49643598  0.02973067    -0.99100
O1762       O  0.77915019  0.99523708  0.10360113    -0.81200
O1763       O  0.76494796  0.46765448  0.31182953    -0.84500
O1764       O  0.79343337  0.02455153  0.31188295    -2.19200
O1765       O  0.71825524  0.04542720  0.23300132    -0.67900
O1766       O  0.75460483  0.07959670  0.27050584    -0.52500
C1767       C  0.73596419  0.07197278  0.24334856     0.70900
O1768       O  0.66730017  0.44707438  0.05533377    -0.60800
O1769       O  0.67061021  0.41285366  0.01926580    -0.52800
C1770       C  0.65892313  0.42052868  0.04560684     0.72700
O1771       O  0.71768684  0.04547773  0.05587637    -0.72200
O1772       O  0.75457940  0.07962703  0.01903094    -0.50900
C1773       C  0.73567855  0.07200106  0.04585668     0.74100
O1774       O  0.66758562  0.44689389  0.23403172    -0.67500
O1775       O  0.67070827  0.41271032  0.27042110    -0.54700
C1776       C  0.65911045  0.42034712  0.24390526     0.72400
Zr1777     Zr  0.70373171  0.49604991  0.25490273     2.77500
O1778       O  0.65787591  0.49653021  0.25797768    -0.98300
O1779       O  0.70381163  0.49494809  0.18610859    -0.79100
Zr1780     Zr  0.70321383  0.49613559  0.03409071     2.70100
O1781       O  0.65737140  0.49642755  0.02856142    -0.80400
O1782       O  0.70060099  0.49474474  0.10289323    -0.99400
Zr1783     Zr  0.71282265  0.43978284  0.31161706     2.21500
Zr1784     Zr  0.76902106  0.05222580  0.31149644     2.11100
O1785       O  0.71690408  0.02445366  0.31114080    -2.48100
O1786       O  0.68859617  0.46759260  0.31119256    -0.80100
O1787       O  0.75547185  0.02461493  0.25432027    -0.72300
O1788       O  0.72656170  0.46778006  0.03531925    -2.33300
O1789       O  0.72712111  0.46773875  0.25455887    -2.29500
O1790       O  0.75499343  0.02462282  0.03545777    -0.74100
H1791       H  0.81441285  0.03726481  0.31192877     0.77900
H1792       H  0.72022815  0.45531994  0.05743461     0.79000
H1793       H  0.70856247  0.03710184  0.31104414     0.81200
H1794       H  0.72089298  0.45519631  0.23252140     0.78800
H1795       H  0.76490846  0.50127713  0.11131039     0.41900
H1796       H  0.71937951  0.01170945  0.11112004     0.40800
H1797       H  0.64551636  0.48040293  0.01055642     0.40500
H1798       H  0.66281656  0.01502543  0.27110561     0.38400
H1799       H  0.72375337  0.99903847  0.17954166     0.41600
H1800       H  0.76132603  0.47976251  0.17899358     0.36400
H1801       H  0.82132154  0.48082406  0.27776587     0.42500
H1802       H  0.83812127  0.01541335  0.01771907     0.38900
H1803       H  0.65400621  0.49969341  0.23143156     0.43800
H1804       H  0.79439541  0.48846820  0.18084883     0.42500
H1805       H  0.83144356  0.49844222  0.05621048     0.42700
H1806       H  0.68566489  0.50022720  0.10909263     0.43000
C1807       C  0.74819134  0.35239110  0.39987368     0.79700
N1808       N  0.74562617  0.37346449  0.38111451    -0.78600
C1809       C  0.74824115  0.39702482  0.40016826     0.82100
N1810       N  0.75232144  0.39892011  0.43832480    -0.78600
C1811       C  0.75391508  0.37743037  0.45751323     0.82200
N1812       N  0.75229991  0.35440870  0.43806185    -0.80300
C1813       C  0.74793497  0.35213866  0.55673649     0.79700
N1814       N  0.74563841  0.37328572  0.57570297    -0.78600
C1815       C  0.74853780  0.39702150  0.55685985     0.82100
N1816       N  0.75261748  0.39900769  0.51867742    -0.78600
C1817       C  0.75390667  0.37739798  0.49929957     0.82200
N1818       N  0.75200162  0.35420724  0.51856807    -0.80300
C1819       C  0.63423734  0.39710394  0.55649605     0.79700
N1820       N  0.63204658  0.39922467  0.51834472    -0.78600
C1821       C  0.60891625  0.37787513  0.49899957     0.82100
N1822       N  0.58746192  0.35480841  0.51831231    -0.78600
C1823       C  0.58951880  0.35260674  0.55646574     0.82200
N1824       N  0.61321005  0.37349530  0.57535992    -0.80300
C1825       C  0.63408870  0.39728482  0.39965036     0.79700
N1826       N  0.63189323  0.39938719  0.43780081    -0.78600
C1827       C  0.60890692  0.37788159  0.45716329     0.82100
N1828       N  0.58761598  0.35467979  0.43786971    -0.78600
C1829       C  0.58968371  0.35248911  0.39972003     0.82200
N1830       N  0.61323088  0.37355170  0.38079564    -0.80300
C1831       C  0.58966978  0.23841771  0.39953407     0.79700
N1832       N  0.58775454  0.23452465  0.43775780    -0.78600
C1833       C  0.60920763  0.23294929  0.45714747     0.82100
N1834       N  0.63218564  0.23439012  0.43783965    -0.78600
C1835       C  0.63419558  0.23827138  0.39963131     0.82200
N1836       N  0.61320779  0.24085036  0.38065326    -0.80300
C1837       C  0.58975569  0.23887202  0.55636665     0.79700
N1838       N  0.61317954  0.24117064  0.57541565    -0.78600
C1839       C  0.63408176  0.23829582  0.55665928     0.82100
N1840       N  0.63207587  0.23427712  0.51844539    -0.78600
C1841       C  0.60921361  0.23301594  0.49897515     0.82200
N1842       N  0.58786123  0.23486107  0.51818786    -0.80300
C1843       C  0.89141730  0.14027871  0.55576333     0.79700
N1844       N  0.89364208  0.13788951  0.51774831    -0.78600
C1845       C  0.87233194  0.11467646  0.49860687     0.82100
N1846       N  0.84917591  0.09335370  0.51787624    -0.78600
C1847       C  0.84679779  0.09562304  0.55589529     0.82200
N1848       N  0.86769779  0.11939871  0.57468627    -0.80300
C1849       C  0.89116782  0.13982941  0.39955509     0.79700
N1850       N  0.86745753  0.11878175  0.38087648    -0.78600
C1851       C  0.84673524  0.09510475  0.39997689     0.82100
N1852       N  0.84921205  0.09305506  0.43798207    -0.78600
C1853       C  0.87233452  0.11454172  0.45701182     0.82200
N1854       N  0.89351893  0.13769139  0.43760750    -0.80300
C1855       C  0.84689356  0.25296115  0.40002607     0.79700
N1856       N  0.86777072  0.25007508  0.38118955    -0.78600
C1857       C  0.89128183  0.25250522  0.40018177     0.82100
N1858       N  0.89331599  0.25676290  0.43826091    -0.78600
C1859       C  0.87201816  0.25868879  0.45741902     0.82200
N1860       N  0.84905474  0.25722349  0.43811636    -0.80300
C1861       C  0.84655716  0.25241336  0.55629333     0.79700
N1862       N  0.86750415  0.24970778  0.57519460    -0.78600
C1863       C  0.89116679  0.25244005  0.55628552     0.82100
N1864       N  0.89329158  0.25681629  0.51823152    -0.78600
C1865       C  0.87192909  0.25857170  0.49901214     0.82200
N1866       N  0.84879931  0.25679866  0.51823321    -0.80300
C1867       C  0.73444488  0.09526628  0.55607327     0.79700
N1868       N  0.73710536  0.11891220  0.57498698    -0.78600
C1869       C  0.73425583  0.13980282  0.55614022     0.82100
N1870       N  0.72977710  0.13748753  0.51808077    -0.78600
C1871       C  0.72811109  0.11440092  0.49882234     0.82200
N1872       N  0.73001825  0.09310738  0.51801764    -0.80300
C1873       C  0.73419017  0.09524570  0.39984272     0.79700
N1874       N  0.73678438  0.11886250  0.38097888    -0.78600
C1875       C  0.73397557  0.13972674  0.39993915     0.82100
N1876       N  0.72963501  0.13743857  0.43800962    -0.78600
C1877       C  0.72802576  0.11437350  0.45720182     0.82200
N1878       N  0.72987129  0.09307953  0.43791954    -0.80300
O1879       O  0.76509437  0.31946368  0.38853985    -0.75900
O1880       O  0.72735949  0.31585037  0.35269458    -0.54800
C1881       C  0.74674527  0.32765230  0.37898773     0.77900
O1882       O  0.81305631  0.26872404  0.56653549    -0.60500
O1883       O  0.81069376  0.23225711  0.60397186    -0.53500
C1884       C  0.82179634  0.25095063  0.57688486     0.69900
O1885       O  0.76458881  0.31897710  0.56744955    -0.75000
O1886       O  0.72733621  0.31583759  0.60401223    -0.55600
C1887       C  0.74646791  0.32738135  0.57741573     0.75900
O1888       O  0.81339070  0.26930139  0.38962338    -0.60200
O1889       O  0.81090192  0.23265578  0.35244582    -0.53300
C1890       C  0.82210900  0.25148377  0.37939454     0.72500
Zr1891     Zr  0.77844864  0.28356963  0.36749132     2.54700
O1892       O  0.82445410  0.32943324  0.36094465    -0.80700
O1893       O  0.78078305  0.28568546  0.43633454    -0.94100
Zr1894     Zr  0.77813106  0.28316720  0.58825283     2.64700
O1895       O  0.82457979  0.32896383  0.59202020    -0.99100
O1896       O  0.77768828  0.28308979  0.51937312    -0.81200
O1897       O  0.76460669  0.29817801  0.64451235    -0.84500
O1898       O  0.79311520  0.26983420  0.64459043    -2.19200
O1899       O  0.71794046  0.17352251  0.39017352    -0.67900
O1900       O  0.75397714  0.17555355  0.35213726    -0.52500
C1901       C  0.73546401  0.16456001  0.37945460     0.70900
O1902       O  0.66711279  0.22137130  0.56791748    -0.60800
O1903       O  0.67038817  0.25886158  0.60402836    -0.52800
C1904       C  0.65876005  0.23960339  0.57758235     0.72700
O1905       O  0.71750901  0.17296733  0.56703857    -0.72200
O1906       O  0.75475500  0.17610070  0.60347203    -0.50900
C1907       C  0.73569483  0.16460259  0.57682229     0.74100
O1908       O  0.66741937  0.22163793  0.38899801    -0.67500
O1909       O  0.67043071  0.25876373  0.35234662    -0.54700
C1910       C  0.65893241  0.23967091  0.37896997     0.72400
Zr1911     Zr  0.70340530  0.20835194  0.36825383     2.77500
O1912       O  0.65744673  0.16205119  0.36523990    -0.98300
O1913       O  0.70247581  0.20917272  0.43710330    -0.79100
Zr1914     Zr  0.70306191  0.20795016  0.58887849     2.70100
O1915       O  0.65763901  0.16144648  0.59426550    -0.80400
O1916       O  0.70024108  0.20627043  0.52008439    -0.99400
Zr1917     Zr  0.71253711  0.27376690  0.64487852     2.21500
Zr1918     Zr  0.76885110  0.21772246  0.64491055     2.11100
O1919       O  0.71672956  0.19332458  0.64522425    -2.48100
O1920       O  0.68830748  0.22165624  0.64521251    -0.80100
O1921       O  0.75521126  0.23175782  0.36881150    -0.72300
O1922       O  0.72639498  0.25968914  0.58774993    -2.33300
O1923       O  0.72671312  0.26008088  0.36865612    -2.29500
O1924       O  0.75486604  0.23138716  0.58772250    -0.74100
H1925       H  0.81410338  0.27817108  0.64458470     0.77900
H1926       H  0.72005826  0.26585628  0.56567595     0.79000
H1927       H  0.70844563  0.17234313  0.64522437     0.81200
H1928       H  0.72048434  0.26643424  0.39065503     0.78800
H1929       H  0.76761856  0.26209626  0.51244947     0.41900
H1930       H  0.71987513  0.21041504  0.51177639     0.40800
H1931       H  0.64566895  0.16530474  0.61245321     0.40500
H1932       H  0.66184188  0.14904684  0.34980183     0.38400
H1933       H  0.71603137  0.22988209  0.44382935     0.41600
H1934       H  0.76199879  0.28395831  0.44435935     0.36400
H1935       H  0.81967030  0.34172234  0.34459429     0.42500
H1936       H  0.83777423  0.32408019  0.60619002     0.38900
H1937       H  0.65459891  0.15401506  0.39125300     0.43800
H1938       H  0.79571320  0.30616906  0.44222457     0.42500
H1939       H  0.83223547  0.33257265  0.56575872     0.42700
H1940       H  0.68710727  0.18535030  0.51395259     0.43000
O1941       O  0.53964998  0.31967330  0.56778971    -0.75900
O1942       O  0.57385990  0.31597317  0.60334247    -0.54800
C1943       C  0.56621301  0.32781668  0.57720501     0.77900
O1944       O  0.94112302  0.26887245  0.38982390    -0.60500
O1945       O  0.90700561  0.23213710  0.35271369    -0.53500
C1946       C  0.91459156  0.25096399  0.37964936     0.69900
O1947       O  0.53985620  0.31893073  0.38920344    -0.75000
O1948       O  0.57401832  0.31633666  0.35212176    -0.55600
C1949       C  0.56640626  0.32763574  0.37901546     0.75900
O1950       O  0.94101426  0.26880516  0.56646605    -0.60200
O1951       O  0.90697284  0.23239828  0.60400180    -0.53300
C1952       C  0.91450997  0.25103711  0.57686278     0.72500
Zr1953     Zr  0.99036307  0.28352824  0.58856473     2.54700
O1954       O  0.98919811  0.32889226  0.59442174    -0.80700
O1955       O  0.99055553  0.28581178  0.51970547    -0.94100
Zr1956     Zr  0.99048981  0.28340479  0.36788858     2.64700
O1957       O  0.99044601  0.32942976  0.36325095    -0.99100
O1958       O  0.99080304  0.28461055  0.43672096    -0.81200
O1959       O  0.51888752  0.29835777  0.64485427    -0.84500
O1960       O  0.96208178  0.26992359  0.64491427    -2.19200
O1961       O  0.94127988  0.17380604  0.56604569    -0.67900
O1962       O  0.90715903  0.17613390  0.60348103    -0.52500
C1963       C  0.91474900  0.16506329  0.57634815     0.70900
O1964       O  0.53978295  0.22156462  0.38836952    -0.60800
O1965       O  0.57395981  0.25924789  0.35244105    -0.52800
C1966       C  0.56634512  0.23986915  0.37874161     0.72700
O1967       O  0.94090946  0.17319252  0.38876589    -0.72200
O1968       O  0.90668476  0.17585499  0.35199338    -0.50900
C1969       C  0.91435101  0.16457869  0.37877460     0.74100
O1970       O  0.53986211  0.22212696  0.56713327    -0.67500
O1971       O  0.57396433  0.25940190  0.60362455    -0.54700
C1972       C  0.56639606  0.24029006  0.57701636     0.72400
Zr1973     Zr  0.99056434  0.20855535  0.58828754     2.77500
O1974       O  0.99000764  0.16214256  0.59075158    -0.98300
O1975       O  0.99160362  0.20948660  0.51950567    -0.79100
Zr1976     Zr  0.99045868  0.20835898  0.36768220     2.70100
O1977       O  0.98919294  0.16172810  0.36319099    -0.80400
O1978       O  0.99159410  0.20775921  0.43657010    -0.99400
Zr1979     Zr  0.54674318  0.27411832  0.64472772     2.21500
Zr1980     Zr  0.93436084  0.21782691  0.64474754     2.11100
O1981       O  0.96223080  0.19358344  0.64464316    -2.48100
O1982       O  0.51896607  0.22200617  0.64469303    -0.80100
O1983       O  0.96197441  0.23173104  0.58751055    -0.72300
O1984       O  0.51886212  0.26007030  0.36855563    -2.33300
O1985       O  0.51881974  0.26025444  0.58762391    -2.29500
O1986       O  0.96194575  0.23161346  0.36870367    -0.74100
H1987       H  0.94936334  0.27818226  0.64491605     0.77900
H1988       H  0.53137783  0.26626404  0.39061930     0.79000
H1989       H  0.94959009  0.17259319  0.64461705     0.81200
H1990       H  0.53133459  0.26656480  0.56556026     0.77900
H1991       H  0.48608862  0.26461818  0.44418574     0.41900
H1992       H  0.97434420  0.20919279  0.44446031     0.40800
H1993       H  0.50542164  0.16554335  0.34575535     0.40500
H1994       H  0.97200356  0.14880619  0.60495940     0.38400
H1995       H  0.98959763  0.22663399  0.51288572     0.41600
H1996       H  0.50697361  0.28293460  0.51189016     0.36400
H1997       H  0.50658882  0.34177410  0.60994243     0.42500
H1998       H  0.97306902  0.32488813  0.34767960     0.38900
H1999       H  0.98582684  0.15476824  0.56435954     0.43800
H2000       H  0.99730013  0.30657887  0.51381726     0.42500
H2001       H  0.98528666  0.33271435  0.38906809     0.42700
H2002       H  0.98649048  0.18750065  0.44310127     0.43000
O2003       O  0.76542805  0.44690483  0.56800969    -0.75900
O2004       O  0.72788192  0.41269863  0.60407327    -0.54800
C2005       C  0.74717215  0.42034916  0.57766828     0.77900
O2006       O  0.81313801  0.04529673  0.39014047    -0.60500
O2007       O  0.81071651  0.07933885  0.35264805    -0.53500
C2008       C  0.82187518  0.07177679  0.37967958     0.69900
O2009       O  0.76477061  0.44691060  0.38965465    -0.75000
O2010       O  0.72773545  0.41277581  0.35288412    -0.55600
C2011       C  0.74677430  0.42037629  0.37959679     0.75900
O2012       O  0.81341714  0.04568455  0.56651033    -0.60200
O2013       O  0.81082001  0.07977403  0.60367856    -0.53300
C2014       C  0.82202729  0.07223798  0.57662790     0.72500
Zr2015     Zr  0.77887851  0.49626226  0.58889661     2.54700
O2016       O  0.82557022  0.49775056  0.59474861    -0.80700
O2017       O  0.78085448  0.99581064  0.52006607    -0.94100
Zr2018     Zr  0.77826956  0.49608617  0.36812427     2.64700
O2019       O  0.82445928  0.49643252  0.36305806    -0.99100
O2020       O  0.77913357  0.99523072  0.43693544    -0.81200
O2021       O  0.76494749  0.46765492  0.64516401    -0.84500
O2022       O  0.79343513  0.02455327  0.64521728    -2.19200
O2023       O  0.71825951  0.04542978  0.56633421    -0.67900
O2024       O  0.75460855  0.07960027  0.60383810    -0.52500
C2025       C  0.73596779  0.07197581  0.57668096     0.70900
O2026       O  0.66729727  0.44707116  0.38866037    -0.60800
O2027       O  0.67061036  0.41284995  0.35259733    -0.52800
C2028       C  0.65892213  0.42052518  0.37893651     0.72700
O2029       O  0.71768351  0.04547693  0.38920790    -0.72200
O2030       O  0.75457763  0.07962653  0.35236471    -0.50900
C2031       C  0.73567587  0.07200045  0.37918946     0.74100
O2032       O  0.66758917  0.44689471  0.56736343    -0.67500
O2033       O  0.67070886  0.41271089  0.60375598    -0.54700
C2034       C  0.65911279  0.42034785  0.57723822     0.72400
Zr2035     Zr  0.70373423  0.49605133  0.58823568     2.77500
O2036       O  0.65787882  0.49653182  0.59131196    -0.98300
O2037       O  0.70381472  0.49494942  0.51944143    -0.79100
Zr2038     Zr  0.70321235  0.49613366  0.36742107     2.70100
O2039       O  0.65736951  0.49642580  0.36190100    -0.80400
O2040       O  0.70060482  0.49473739  0.43622341    -0.99400
Zr2041     Zr  0.71282219  0.43978336  0.64495208     2.21500
Zr2042     Zr  0.76902273  0.05222743  0.64482828     2.11100
O2043       O  0.71690601  0.02445560  0.64447380    -2.48100
O2044       O  0.68859733  0.46759461  0.64452605    -0.80100
O2045       O  0.75547479  0.02461644  0.58765218    -0.72300
O2046       O  0.72656100  0.46777910  0.36864750    -2.33300
O2047       O  0.72712165  0.46773870  0.58789359    -2.29500
O2048       O  0.75499152  0.02462125  0.36879315    -0.74100
H2049       H  0.81441459  0.03726661  0.64526341     0.77900
H2050       H  0.72022727  0.45531905  0.39076281     0.79000
H2051       H  0.70856447  0.03710385  0.64437654     0.81200
H2052       H  0.72089314  0.45519610  0.56585630     0.78800
H2053       H  0.76475841  0.50108525  0.44463466     0.41900
H2054       H  0.71937028  0.01171823  0.44445462     0.40800
H2055       H  0.64552248  0.48041754  0.34387176     0.40500
H2056       H  0.66282187  0.01503062  0.60443484     0.38400
H2057       H  0.72372668  0.99897374  0.51287187     0.41600
H2058       H  0.76131936  0.47975775  0.51233068     0.36400
H2059       H  0.82132422  0.48082657  0.61109718     0.42500
H2060       H  0.83811724  0.01540527  0.35104868     0.38900
H2061       H  0.65400664  0.49969064  0.56476522     0.43800
H2062       H  0.79439022  0.48846867  0.51417848     0.42500
H2063       H  0.83145139  0.49845566  0.38953531     0.42700
H2064       H  0.68565481  0.50020014  0.44242642     0.43000
C2065       C  0.74819233  0.35239210  0.73320898     0.79700
N2066       N  0.74562748  0.37346537  0.71444909    -0.78600
C2067       C  0.74824039  0.39702491  0.73350258     0.82100
N2068       N  0.75231864  0.39891962  0.77165949    -0.78600
C2069       C  0.75391209  0.37742994  0.79084843     0.82200
N2070       N  0.75229856  0.35440888  0.77139746    -0.80300
C2071       C  0.74793412  0.35213941  0.89007188     0.79700
N2072       N  0.74564051  0.37328805  0.90903881    -0.78600
C2073       C  0.74854019  0.39702392  0.89019538     0.82100
N2074       N  0.75261732  0.39900880  0.85201256    -0.78600
C2075       C  0.75390379  0.37739772  0.83263459     0.82200
N2076       N  0.75199820  0.35420677  0.85190308    -0.80300
C2077       C  0.63424022  0.39710478  0.88983049     0.79700
N2078       N  0.63204913  0.39922589  0.85167934    -0.78600
C2079       C  0.60891828  0.37787684  0.83233446     0.82100
N2080       N  0.58746365  0.35481044  0.85164712    -0.78600
C2081       C  0.58952043  0.35260848  0.88980041     0.82200
N2082       N  0.61321240  0.37349639  0.90869448    -0.80300
C2083       C  0.63408789  0.39728836  0.73298501     0.79700
N2084       N  0.63189330  0.39939023  0.77113566    -0.78600
C2085       C  0.60890811  0.37788372  0.79049843     0.82100
N2086       N  0.58761752  0.35468146  0.77120514    -0.78600
C2087       C  0.58968450  0.35249136  0.73305525     0.82200
N2088       N  0.61323046  0.37355500  0.71413041    -0.80300
C2089       C  0.58966869  0.23841709  0.73287252     0.79700
N2090       N  0.58775388  0.23452387  0.77109611    -0.78600
C2091       C  0.60920787  0.23294976  0.79048509     0.82100
N2092       N  0.63218637  0.23439197  0.77117683    -0.78600
C2093       C  0.63419573  0.23827315  0.73296849     0.82200
N2094       N  0.61320697  0.24085087  0.71399113    -0.80300
C2095       C  0.58975558  0.23887003  0.88970462     0.79700
N2096       N  0.61317938  0.24116824  0.90875327    -0.78600
C2097       C  0.63408169  0.23829412  0.88999591     0.82100
N2098       N  0.63207615  0.23427678  0.85178199    -0.78600
C2099       C  0.60921392  0.23301589  0.83231243     0.82200
N2100       N  0.58786143  0.23486033  0.85152569    -0.80300
C2101       C  0.89141857  0.14027934  0.88909532     0.79700
N2102       N  0.89364471  0.13788828  0.85108101    -0.78600
C2103       C  0.87233508  0.11467441  0.83194028     0.82100
N2104       N  0.84917853  0.09335259  0.85120954    -0.78600
C2105       C  0.84679911  0.09562345  0.88922784     0.82200
N2106       N  0.86769844  0.11940005  0.90801825    -0.80300
C2107       C  0.89116763  0.13982947  0.73289024     0.79700
N2108       N  0.86745558  0.11878365  0.71421238    -0.78600
C2109       C  0.84673346  0.09510645  0.73331250     0.82100
N2110       N  0.84921233  0.09305473  0.77131680    -0.78600
C2111       C  0.87233664  0.11453973  0.79034576     0.82200
N2112       N  0.89352078  0.13768949  0.77094163    -0.80300
C2113       C  0.84689245  0.25295900  0.73335941     0.79700
N2114       N  0.86776924  0.25007267  0.71452211    -0.78600
C2115       C  0.89128091  0.25250317  0.73351345     0.82100
N2116       N  0.89331588  0.25676156  0.77159259    -0.78600
C2117       C  0.87201844  0.25868771  0.79075150     0.82200
N2118       N  0.84905454  0.25722199  0.77144959    -0.80300
C2119       C  0.84655867  0.25241359  0.88962672     0.79700
N2120       N  0.86750578  0.24970803  0.90852748    -0.78600
C2121       C  0.89116812  0.25244006  0.88961789     0.82100
N2122       N  0.89329276  0.25681620  0.85156388    -0.78600
C2123       C  0.87193008  0.25857141  0.83234484     0.82200
N2124       N  0.84880047  0.25679851  0.85156643    -0.80300
C2125       C  0.73444759  0.09526791  0.88940696     0.79700
N2126       N  0.73710844  0.11891413  0.90832011    -0.78600
C2127       C  0.73425997  0.13980508  0.88947260     0.82100
N2128       N  0.72978176  0.13748974  0.85141316    -0.78600
C2129       C  0.72811542  0.11440286  0.83215524     0.82200
N2130       N  0.73002173  0.09310901  0.85135113    -0.80300
C2131       C  0.73419300  0.09524712  0.73317556     0.79700
N2132       N  0.73678501  0.11886286  0.71431129    -0.78600
C2133       C  0.73397537  0.13972664  0.73327150     0.82100
N2134       N  0.72963628  0.13743898  0.77134229    -0.78600
C2135       C  0.72802922  0.11437493  0.79053478     0.82200
N2136       N  0.72987543  0.09308139  0.77125257    -0.80300
O2137       O  0.76509621  0.31946526  0.72187487    -0.75900
O2138       O  0.72736057  0.31585171  0.68603074    -0.54800
C2139       C  0.74674671  0.32765358  0.71232338     0.77900
O2140       O  0.81305787  0.26872454  0.89986990    -0.60500
O2141       O  0.81069515  0.23225731  0.93730579    -0.53500
C2142       C  0.82179787  0.25095098  0.91021887     0.69900
O2143       O  0.76458813  0.31897754  0.90078385    -0.75000
O2144       O  0.72733592  0.31583798  0.93734747    -0.55600
C2145       C  0.74646738  0.32738194  0.91075078     0.75900
O2146       O  0.81339152  0.26930181  0.72295583    -0.60200
O2147       O  0.81089903  0.23265311  0.68578119    -0.53300
C2148       C  0.82210777  0.25148218  0.71272852     0.72500
Zr2149     Zr  0.77844993  0.28357124  0.70082427     2.54700
O2150       O  0.82445503  0.32943556  0.69427719    -0.80700
O2151       O  0.78078224  0.28568363  0.76966760    -0.94100
Zr2152     Zr  0.77813162  0.28316755  0.92158545     2.64700
O2153       O  0.82458082  0.32896351  0.92535319    -0.99100
O2154       O  0.77768907  0.28308842  0.85270553    -0.81200
O2155       O  0.76460690  0.29817779  0.97784547    -0.84500
O2156       O  0.79311446  0.26983447  0.97792428    -2.19200
O2157       O  0.71793995  0.17352272  0.72350669    -0.67900
O2158       O  0.75397589  0.17555345  0.68546907    -0.52500
C2159       C  0.73546313  0.16455986  0.71278691     0.70900
O2160       O  0.66711364  0.22137073  0.90125094    -0.60800
O2161       O  0.67038814  0.25885986  0.93736342    -0.52800
C2162       C  0.65876022  0.23960193  0.91091743     0.72700
O2163       O  0.71751349  0.17296998  0.90036869    -0.72200
O2164       O  0.75475706  0.17610163  0.93680573    -0.50900
C2165       C  0.73569846  0.16460462  0.91015418     0.74100
O2166       O  0.66741816  0.22163848  0.72233125    -0.67500
O2167       O  0.67043198  0.25876780  0.68568501    -0.54700
C2168       C  0.65893256  0.23967317  0.71230624     0.72400
Zr2169     Zr  0.70340557  0.20835376  0.70158887     2.77500
O2170       O  0.65744821  0.16205172  0.69857906    -0.98300
O2171       O  0.70247792  0.20918090  0.77043814    -0.79100
Zr2172     Zr  0.70306347  0.20795030  0.92220980     2.70100
O2173       O  0.65764063  0.16144644  0.92759449    -0.80400
O2174       O  0.70023790  0.20626713  0.85341584    -0.99400
Zr2175     Zr  0.71253747  0.27376619  0.97821130     2.21500
Zr2176     Zr  0.76885194  0.21772295  0.97824380     2.11100
O2177       O  0.71673027  0.19332418  0.97855601    -2.48100
O2178       O  0.68830851  0.22165548  0.97854413    -0.80100
O2179       O  0.75521157  0.23175937  0.70214452    -0.72300
O2180       O  0.72639552  0.25968937  0.92108166    -2.33300
O2181       O  0.72671426  0.26008271  0.70198953    -2.29500
O2182       O  0.75486757  0.23138762  0.92105500    -0.74100
H2183       H  0.81410264  0.27817155  0.97791920     0.77900
H2184       H  0.72005869  0.26585662  0.89900788     0.79000
H2185       H  0.70844671  0.17234276  0.97855578     0.81200
H2186       H  0.72048579  0.26643611  0.72398869     0.78800
H2187       H  0.76763539  0.26209517  0.84578227     0.41900
H2188       H  0.71987320  0.21041714  0.84510573     0.40800
H2189       H  0.64566856  0.16530533  0.94577807     0.40500
H2190       H  0.66184409  0.14904672  0.68314336     0.38400
H2191       H  0.71602594  0.22989265  0.77716124     0.41600
H2192       H  0.76199897  0.28395902  0.77769205     0.36400
H2193       H  0.81967196  0.34172265  0.67792174     0.42500
H2194       H  0.83776768  0.32408510  0.93955130     0.38900
H2195       H  0.65460086  0.15401752  0.72459325     0.43800
H2196       H  0.79571433  0.30616616  0.77555934     0.42500
H2197       H  0.83224875  0.33255939  0.89909802     0.42700
H2198       H  0.68710825  0.18534591  0.84728557     0.43000
O2199       O  0.53965074  0.31967377  0.90112213    -0.75900
O2200       O  0.57386039  0.31597550  0.93667797    -0.54800
C2201       C  0.56621386  0.32781832  0.91053926     0.77900
O2202       O  0.94112202  0.26887073  0.72315356    -0.60500
O2203       O  0.90700437  0.23213267  0.68604683    -0.53500
C2204       C  0.91459041  0.25096133  0.71298051     0.69900
O2205       O  0.53985750  0.31893128  0.72254105    -0.75000
O2206       O  0.57401912  0.31634002  0.68545510    -0.55600
C2207       C  0.56640729  0.32763774  0.71235088     0.75900
O2208       O  0.94101512  0.26880347  0.89979633    -0.60200
O2209       O  0.90697369  0.23239988  0.93733591    -0.53300
C2210       C  0.91451100  0.25103697  0.91019484     0.72500
Zr2211     Zr  0.99036325  0.28352906  0.92189854     2.54700
O2212       O  0.98919130  0.32888952  0.92775318    -0.80700
O2213       O  0.99056048  0.28581639  0.85303906    -0.94100
Zr2214     Zr  0.99048899  0.28339892  0.70122335     2.64700
O2215       O  0.99044336  0.32942303  0.69659558    -0.99100
O2216       O  0.99080336  0.28459414  0.77005635    -0.81200
O2217       O  0.51888684  0.29835803  0.97818757    -0.84500
O2218       O  0.96208152  0.26992436  0.97824793    -2.19200
O2219       O  0.94128069  0.17380816  0.89937643    -0.67900
O2220       O  0.90715975  0.17613520  0.93681266    -0.52500
C2221       C  0.91474985  0.16506483  0.90967946     0.70900
O2222       O  0.53978173  0.22156367  0.72170794    -0.60800
O2223       O  0.57395887  0.25924791  0.68578072    -0.52800
C2224       C  0.56634394  0.23986862  0.71208067     0.72700
O2225       O  0.94090928  0.17319486  0.72210451    -0.72200
O2226       O  0.90668465  0.17585099  0.68532402    -0.50900
C2227       C  0.91435088  0.16457833  0.71210966     0.74100
O2228       O  0.53986209  0.22212409  0.90047247    -0.67500
O2229       O  0.57396466  0.25940279  0.93695895    -0.54700
C2230       C  0.56639614  0.24028849  0.91035394     0.72400
Zr2231     Zr  0.99056437  0.20855644  0.92162064     2.77500
O2232       O  0.99000369  0.16214143  0.92408201    -0.98300
O2233       O  0.99160477  0.20949015  0.85283910    -0.79100
Zr2234     Zr  0.99045946  0.20835545  0.70101592     2.70100
O2235       O  0.98919328  0.16172315  0.69654634    -0.80400
O2236       O  0.99160014  0.20776816  0.76990360    -0.99400
Zr2237     Zr  0.54674317  0.27411943  0.97806080     2.21500
Zr2238     Zr  0.93436052  0.21782759  0.97808160     2.11100
O2239       O  0.96223024  0.19358411  0.97797572    -2.48100
O2240       O  0.51896538  0.22200760  0.97802520    -0.80100
O2241       O  0.96197426  0.23173187  0.92084469    -0.72300
O2242       O  0.51886260  0.26007162  0.70189123    -2.33300
O2243       O  0.51882022  0.26025519  0.92095647    -2.29500
O2244       O  0.96194469  0.23160789  0.70203653    -0.74100
H2245       H  0.94936279  0.27818270  0.97824922     0.77900
H2246       H  0.53137800  0.26626513  0.72395516     0.79000
H2247       H  0.94958942  0.17259380  0.97794927     0.81200
H2248       H  0.53133528  0.26656539  0.89889298     0.77900
H2249       H  0.48615081  0.26464105  0.77751841     0.41900
H2250       H  0.97436059  0.20922106  0.77779103     0.40800
H2251       H  0.50540507  0.16554069  0.67904515     0.40500
H2252       H  0.97199209  0.14880169  0.93827402     0.38400
H2253       H  0.98954911  0.22660872  0.84622006     0.41600
H2254       H  0.50696284  0.28291848  0.84522365     0.36400
H2255       H  0.50656548  0.34176050  0.94331469     0.42500
H2256       H  0.97305876  0.32487896  0.68103935     0.38900
H2257       H  0.98583609  0.15477449  0.89768606     0.43800
H2258       H  0.99731026  0.30658477  0.84715186     0.42500
H2259       H  0.98529662  0.33271131  0.72241828     0.42700
H2260       H  0.98647896  0.18750583  0.77644165     0.43000
O2261       O  0.76543023  0.44690754  0.90134262    -0.75900
O2262       O  0.72788687  0.41270193  0.93741019    -0.54800
C2263       C  0.74717563  0.42035212  0.91100350     0.77900
O2264       O  0.81313474  0.04529908  0.72347790    -0.60500
O2265       O  0.81071742  0.07934075  0.68598008    -0.53500
C2266       C  0.82187346  0.07177887  0.71301494     0.69900
O2267       O  0.76476891  0.44691038  0.72298824    -0.75000
O2268       O  0.72773409  0.41277507  0.68621802    -0.55600
C2269       C  0.74677304  0.42037592  0.71293058     0.75900
O2270       O  0.81341649  0.04568527  0.89983995    -0.60200
O2271       O  0.81082172  0.07977417  0.93701221    -0.53300
C2272       C  0.82202805  0.07223849  0.90995989     0.72500
Zr2273     Zr  0.77888041  0.49626407  0.92223137     2.54700
O2274       O  0.82557278  0.49775402  0.92808637    -0.80700
O2275       O  0.78085060  0.99580882  0.85339634    -0.94100
Zr2276     Zr  0.77826769  0.49608627  0.70145911     2.64700
O2277       O  0.82445664  0.49643074  0.69640203    -0.99100
O2278       O  0.77915596  0.99523757  0.77027028    -0.81200
O2279       O  0.76495011  0.46765645  0.97849855    -0.84500
O2280       O  0.79343614  0.02455399  0.97854876    -2.19200
O2281       O  0.71825978  0.04543102  0.89966977    -0.67900
O2282       O  0.75461010  0.07960148  0.93717237    -0.52500
C2283       C  0.73596913  0.07197710  0.91001558     0.70900
O2284       O  0.66729802  0.44707416  0.72199768    -0.60800
O2285       O  0.67060758  0.41285304  0.68592999    -0.52800
C2286       C  0.65892104  0.42052842  0.71227125     0.72700
O2287       O  0.71768870  0.04547894  0.72254389    -0.72200
O2288       O  0.75457845  0.07962796  0.68569516    -0.50900
C2289       C  0.73567893  0.07200213  0.71252257     0.74100
O2290       O  0.66759153  0.44689571  0.90069759    -0.67500
O2291       O  0.67071208  0.41271241  0.93709033    -0.54700
C2292       C  0.65911569  0.42034897  0.91057247     0.72400
Zr2293     Zr  0.70373495  0.49605231  0.92157144     2.77500
O2294       O  0.65787944  0.49653287  0.92464784    -0.98300
O2295       O  0.70381571  0.49495298  0.85277730    -0.79100
Zr2296     Zr  0.70321227  0.49613516  0.70075512     2.70100
O2297       O  0.65736935  0.49642686  0.69523249    -0.80400
O2298       O  0.70060106  0.49474047  0.76955778    -0.99400
Zr2299     Zr  0.71282480  0.43978505  0.97828765     2.21500
Zr2300     Zr  0.76902339  0.05222773  0.97816134     2.11100
O2301       O  0.71690634  0.02445580  0.97780788    -2.48100
O2302       O  0.68859880  0.46759516  0.97786174    -0.80100
O2303       O  0.75547431  0.02461670  0.92098564    -0.72300
O2304       O  0.72655944  0.46777912  0.70198290    -2.33300
O2305       O  0.72712348  0.46774066  0.92122929    -2.29500
O2306       O  0.75499316  0.02462313  0.70212556    -0.74100
H2307       H  0.81441558  0.03726744  0.97859485     0.77900
H2308       H  0.72022559  0.45531903  0.72409828     0.79000
H2309       H  0.70856481  0.03710406  0.97771116     0.81200
H2310       H  0.72089502  0.45519810  0.89919199     0.78800
H2311       H  0.76470974  0.50102782  0.77796635     0.41900
H2312       H  0.71937559  0.01170403  0.77778880     0.40800
H2313       H  0.64551775  0.48040997  0.67721626     0.40500
H2314       H  0.66281765  0.01502465  0.93777890     0.38400
H2315       H  0.72374599  0.99902925  0.84620648     0.41600
H2316       H  0.76131656  0.47976929  0.84566584     0.36400
H2317       H  0.82132917  0.48083646  0.94444668     0.42500
H2318       H  0.83812951  0.01543010  0.68442192     0.38900
H2319       H  0.65400758  0.49969238  0.89810129     0.43800
H2320       H  0.79438129  0.48845789  0.84751237     0.42500
H2321       H  0.83144997  0.49846126  0.72287959     0.42700
H2322       H  0.68564968  0.50020181  0.77575821     0.43000
C2323       C  0.74819345  0.85239260  0.06654163     0.79700
N2324       N  0.74563060  0.87346705  0.04778176    -0.78600
C2325       C  0.74824646  0.89702786  0.06683510     0.82100
N2326       N  0.75232556  0.89892267  0.10499200    -0.78600
C2327       C  0.75391703  0.87743184  0.12418096     0.82200
N2328       N  0.75230067  0.85440958  0.10472994    -0.80300
C2329       C  0.74793374  0.85213830  0.22340410     0.79700
N2330       N  0.74563826  0.87328608  0.24237065    -0.78600
C2331       C  0.74853912  0.89702263  0.22352758     0.82100
N2332       N  0.75261941  0.89900899  0.18534529    -0.78600
C2333       C  0.75390741  0.87739872  0.16596736     0.82200
N2334       N  0.75200056  0.85420707  0.18523567    -0.80300
C2335       C  0.63423519  0.89710418  0.22316381     0.79700
N2336       N  0.63204462  0.89922612  0.18501279    -0.78600
C2337       C  0.60891474  0.87787706  0.16566678     0.82100
N2338       N  0.58746038  0.85480954  0.18497826    -0.78600
C2339       C  0.58951681  0.85260700  0.22313155     0.82200
N2340       N  0.61320778  0.87349509  0.24202667    -0.80300
C2341       C  0.63408964  0.89728870  0.06631916     0.79700
N2342       N  0.63189313  0.89939068  0.10446949    -0.78600
C2343       C  0.60890649  0.87788457  0.12383086     0.82100
N2344       N  0.58761660  0.85468268  0.10453657    -0.78600
C2345       C  0.58968546  0.85249249  0.06638716     0.82200
N2346       N  0.61323260  0.87355570  0.04746361    -0.80300
C2347       C  0.58966896  0.73841820  0.06620527     0.79700
N2348       N  0.58775433  0.73452533  0.10442912    -0.78600
C2349       C  0.60920861  0.73295161  0.12381830     0.82100
N2350       N  0.63218716  0.73439398  0.10451004    -0.78600
C2351       C  0.63419647  0.73827474  0.06630170     0.82200
N2352       N  0.61320746  0.74085207  0.04732407    -0.80300
C2353       C  0.58975673  0.73886986  0.22303909     0.79700
N2354       N  0.61318014  0.74116696  0.24208730    -0.78600
C2355       C  0.63408223  0.73829294  0.22332936     0.82100
N2356       N  0.63207679  0.73427676  0.18511512    -0.78600
C2357       C  0.60921476  0.73301689  0.16564593     0.82200
N2358       N  0.58786249  0.73486120  0.18485994    -0.80300
C2359       C  0.89141824  0.64027953  0.22243326     0.79700
N2360       N  0.89364413  0.63788902  0.18441853    -0.78600
C2361       C  0.87233438  0.61467552  0.16527700     0.82100
N2362       N  0.84917776  0.59335341  0.18454610    -0.78600
C2363       C  0.84679848  0.59562335  0.22256475     0.82200
N2364       N  0.86769795  0.61939976  0.24135577    -0.80300
C2365       C  0.89116824  0.63983027  0.06622567     0.79700
N2366       N  0.86745637  0.61878427  0.04754763    -0.78600
C2367       C  0.84673401  0.59510701  0.06664753     0.82100
N2368       N  0.84921244  0.59305552  0.10465217    -0.78600
C2369       C  0.87233650  0.61454073  0.12368169     0.82200
N2370       N  0.89352096  0.63769040  0.10427742    -0.80300
C2371       C  0.84689321  0.75296219  0.06669441     0.79700
N2372       N  0.86776991  0.75007591  0.04785678    -0.78600
C2373       C  0.89128086  0.75250467  0.06684800     0.82100
N2374       N  0.89331500  0.75676098  0.10492744    -0.78600
C2375       C  0.87201765  0.75868715  0.12408660     0.82200
N2376       N  0.84905457  0.75722339  0.10478492    -0.80300
C2377       C  0.84655880  0.75241119  0.22296245     0.79700
N2378       N  0.86750618  0.74970520  0.24186189    -0.78600
C2379       C  0.89116803  0.75243712  0.22295094     0.82100
N2380       N  0.89329168  0.75681312  0.18489715    -0.78600
C2381       C  0.87192896  0.75856907  0.16567958     0.82200
N2382       N  0.84879999  0.75679660  0.18490227    -0.80300
C2383       C  0.73444487  0.59526499  0.22274139     0.79700
N2384       N  0.73710657  0.61891149  0.24165478    -0.78600
C2385       C  0.73426061  0.63980384  0.22280702     0.82100
N2386       N  0.72978389  0.63748933  0.18474728    -0.78600
C2387       C  0.72811657  0.61440204  0.16548933     0.82200
N2388       N  0.73002045  0.59310692  0.18468531    -0.80300
C2389       C  0.73419437  0.59524652  0.06650972     0.79700
N2390       N  0.73678718  0.61886272  0.04764553    -0.78600
C2391       C  0.73397832  0.63972696  0.06660584     0.82100
N2392       N  0.72963932  0.63743922  0.10467664    -0.78600
C2393       C  0.72803162  0.61437480  0.12386895     0.82200
N2394       N  0.72987709  0.59308091  0.10458673    -0.80300
O2395       O  0.76509394  0.81946313  0.05521038    -0.75900
O2396       O  0.72736243  0.81585330  0.01936109    -0.54800
C2397       C  0.74674668  0.82765350  0.04565619     0.77900
O2398       O  0.81305876  0.76872286  0.23320673    -0.60500
O2399       O  0.81069551  0.73225513  0.27064210    -0.53500
C2400       C  0.82179854  0.75094903  0.24355552     0.69900
O2401       O  0.76458793  0.81897645  0.23411704    -0.75000
O2402       O  0.72733526  0.81583669  0.27067984    -0.55600
C2403       C  0.74646684  0.82738068  0.24408329     0.75900
O2404       O  0.81339205  0.76930468  0.05629115    -0.60200
O2405       O  0.81089998  0.73265632  0.01911633    -0.53300
C2406       C  0.82210862  0.75148545  0.04606364     0.72500
Zr2407     Zr  0.77844916  0.78357106  0.03415771     2.54700
O2408       O  0.82445331  0.82943605  0.02760757    -0.80700
O2409       O  0.78078557  0.78568800  0.10300087    -0.94100
Zr2410     Zr  0.77813122  0.78316585  0.25491772     2.64700
O2411       O  0.82458230  0.82896098  0.25867265    -0.99100
O2412       O  0.77767732  0.78307720  0.18603760    -0.81200
O2413       O  0.76460738  0.79817713  0.31117796    -0.84500
O2414       O  0.79311375  0.76983392  0.31125785    -2.19200
O2415       O  0.71794207  0.67352287  0.05684141    -0.67900
O2416       O  0.75397717  0.67555332  0.01880233    -0.52500
C2417       C  0.73546525  0.66456001  0.04612109     0.70900
O2418       O  0.66711233  0.72136742  0.23458753    -0.60800
O2419       O  0.67039045  0.75886081  0.27069423    -0.52800
C2420       C  0.65876082  0.73960076  0.24425089     0.72700
O2421       O  0.71751528  0.67296990  0.23370130    -0.72200
O2422       O  0.75475655  0.67609987  0.27014179    -0.50900
C2423       C  0.73569917  0.66460360  0.24348858     0.74100
O2424       O  0.66741893  0.72163942  0.05566510    -0.67500
O2425       O  0.67043269  0.75876832  0.01901796    -0.54700
C2426       C  0.65893331  0.73967415  0.04563966     0.72400
Zr2427     Zr  0.70340506  0.70835219  0.03492205     2.77500
O2428       O  0.65744716  0.66205031  0.03191248    -0.98300
O2429       O  0.70247665  0.70917949  0.10377118    -0.79100
Zr2430     Zr  0.70306390  0.70794873  0.25554487     2.70100
O2431       O  0.65764351  0.66144314  0.26093475    -0.80400
O2432       O  0.70023953  0.70626976  0.18675079    -0.99400
Zr2433     Zr  0.71253794  0.77376576  0.31154482     2.21500
Zr2434     Zr  0.76885226  0.71772245  0.31157916     2.11100
O2435       O  0.71673077  0.69332410  0.31189221    -2.48100
O2436       O  0.68830944  0.72165520  0.31187864    -0.80100
O2437       O  0.75521126  0.73175900  0.03547851    -0.72300
O2438       O  0.72639537  0.75968761  0.25441589    -2.33300
O2439       O  0.72671349  0.76008138  0.03532338    -2.29500
O2440       O  0.75486793  0.73138603  0.25438962    -0.74100
H2441       H  0.81410195  0.77817117  0.31125254     0.77900
H2442       H  0.72005822  0.76585437  0.23234192     0.79000
H2443       H  0.70844716  0.67234267  0.31189241     0.81200
H2444       H  0.72048500  0.76643476  0.05732250     0.78800
H2445       H  0.76766755  0.76208465  0.17911755     0.41900
H2446       H  0.71987861  0.71043132  0.17844090     0.40800
H2447       H  0.64567101  0.66530213  0.27911754     0.40500
H2448       H  0.66183973  0.64904883  0.01646389     0.38400
H2449       H  0.71603868  0.72988802  0.11049432     0.41600
H2450       H  0.76200343  0.78396528  0.11102695     0.36400
H2451       H  0.81966890  0.84172315  0.01125417     0.42500
H2452       H  0.83776564  0.82408677  0.27288698     0.38900
H2453       H  0.65460566  0.65401043  0.05792284     0.43800
H2454       H  0.79571912  0.80617053  0.10889018     0.42500
H2455       H  0.83225444  0.83254538  0.23241977     0.42700
H2456       H  0.68711896  0.68534745  0.18061755     0.43000
O2457       O  0.53964809  0.81967065  0.23445180    -0.75900
O2458       O  0.57385842  0.81597541  0.27001017    -0.54800
C2459       C  0.56621115  0.82781649  0.24386993     0.77900
O2460       O  0.94112229  0.76887207  0.05648776    -0.60500
O2461       O  0.90700413  0.73213585  0.01937908    -0.53500
C2462       C  0.91459044  0.75096328  0.04631432     0.69900
O2463       O  0.53985895  0.81893131  0.05587321    -0.75000
O2464       O  0.57402126  0.81634292  0.01878530    -0.55600
C2465       C  0.56640891  0.82763916  0.04568218     0.75900
O2466       O  0.94101588  0.76880080  0.23312624    -0.60200
O2467       O  0.90697490  0.73240042  0.27067016    -0.53300
C2468       C  0.91451179  0.75103523  0.24352675     0.72500
Zr2469     Zr  0.99036537  0.78353006  0.25522901     2.54700
O2470       O  0.98919589  0.82889206  0.26107483    -0.80700
O2471       O  0.99056009  0.78580147  0.18636873    -0.94100
Zr2472     Zr  0.99048987  0.78340418  0.03455363     2.64700
O2473       O  0.99044865  0.82943004  0.02991048    -0.99100
O2474       O  0.99080078  0.78460607  0.10338591    -0.81200
O2475       O  0.51888683  0.79835701  0.31152095    -0.84500
O2476       O  0.96208373  0.76992869  0.31157892    -2.19200
O2477       O  0.94128084  0.67380993  0.23271312    -0.67900
O2478       O  0.90716050  0.67613529  0.27015250    -0.52500
C2479       C  0.91475002  0.66506533  0.24301792     0.70900
O2480       O  0.53978175  0.72156700  0.05504203    -0.60800
O2481       O  0.57395931  0.75924818  0.01911135    -0.52800
C2482       C  0.56634416  0.73987010  0.04541304     0.72700
O2483       O  0.94091008  0.67319356  0.05543584    -0.72200
O2484       O  0.90668499  0.67585517  0.01866295    -0.50900
C2485       C  0.91435148  0.66457953  0.04544482     0.74100
O2486       O  0.53986385  0.72212386  0.23380859    -0.67500
O2487       O  0.57396668  0.75940378  0.27029303    -0.54700
C2488       C  0.56639788  0.74028873  0.24368898     0.72400
Zr2489     Zr  0.99056527  0.70855928  0.25495608     2.77500
O2490       O  0.99000693  0.66214536  0.25740573    -0.98300
O2491       O  0.99161051  0.70950655  0.18617488    -0.79100
Zr2492     Zr  0.99045938  0.70835921  0.03435020     2.70100
O2493       O  0.98919348  0.66172811  0.02986053    -0.80400
O2494       O  0.99159390  0.70776284  0.10323820    -0.99400
Zr2495     Zr  0.54674413  0.77411945  0.31139436     2.21500
Zr2496     Zr  0.93436224  0.71783127  0.31141709     2.11100
O2497       O  0.96223199  0.69358906  0.31131169    -2.48100
O2498       O  0.51896690  0.72200748  0.31136031    -0.80100
O2499       O  0.96197460  0.73173342  0.25417927    -0.72300
O2500       O  0.51886400  0.76007573  0.03522458    -2.33300
O2501       O  0.51882121  0.76025493  0.25428979    -2.29500
O2502       O  0.96194593  0.73161305  0.03536902    -0.74100
H2503       H  0.94936520  0.77818727  0.31157896     0.77900
H2504       H  0.53137937  0.76626903  0.05728861     0.79000
H2505       H  0.94959163  0.67259871  0.31128567     0.81200
H2506       H  0.53133609  0.76656495  0.23222621     0.77900
H2507       H  0.48622109  0.76467888  0.11085484     0.41900
H2508       H  0.97434879  0.70920609  0.11112503     0.40800
H2509       H  0.50537356  0.66553399  0.01232255     0.40500
H2510       H  0.97198849  0.64879996  0.27158172     0.38400
H2511       H  0.98945736  0.72656864  0.17956010     0.41600
H2512       H  0.50697617  0.78294403  0.17855682     0.36400
H2513       H  0.50658040  0.84176637  0.27663030     0.42500
H2514       H  0.97306285  0.82488463  0.01435614     0.38900
H2515       H  0.98585274  0.65478789  0.23100498     0.43800
H2516       H  0.99730283  0.80656710  0.18047363     0.42500
H2517       H  0.98530543  0.83272440  0.05573219     0.42700
H2518       H  0.98648082  0.68750218  0.10977218     0.43000
O2519       O  0.76542752  0.94690612  0.23467502    -0.75900
O2520       O  0.72788370  0.91269990  0.27074131    -0.54800
C2521       C  0.74717317  0.92035046  0.24433540     0.77900
O2522       O  0.81313578  0.54529917  0.05681049    -0.60500
O2523       O  0.81071726  0.57934142  0.01931531    -0.53500
C2524       C  0.82187394  0.57177931  0.04634920     0.69900
O2525       O  0.76477454  0.94691344  0.05632123    -0.75000
O2526       O  0.72773976  0.91277816  0.01955108    -0.55600
C2527       C  0.74677902  0.92037900  0.04626331     0.75900
O2528       O  0.81341567  0.54568426  0.23317673    -0.60200
O2529       O  0.81082041  0.57977311  0.27034851    -0.53300
C2530       C  0.82202715  0.57223769  0.24329652     0.72500
Zr2531     Zr  0.77887725  0.99626296  0.25556305     2.54700
O2532       O  0.82556896  0.99775188  0.26141906    -0.80700
O2533       O  0.78084993  0.49580829  0.18673103    -0.94100
Zr2534     Zr  0.77827034  0.99608819  0.03479153     2.64700
O2535       O  0.82445987  0.99643407  0.02973243    -0.99100
O2536       O  0.77915651  0.49523565  0.10360330    -0.81200
O2537       O  0.76494706  0.96765546  0.31183024    -0.84500
O2538       O  0.79343511  0.52455221  0.31188219    -2.19200
O2539       O  0.71825576  0.54542811  0.23300289    -0.67900
O2540       O  0.75460686  0.57959746  0.27050579    -0.52500
C2541       C  0.73596557  0.57197373  0.24334944     0.70900
O2542       O  0.66730026  0.94707451  0.05533218    -0.60800
O2543       O  0.67061134  0.91285351  0.01926614    -0.52800
C2544       C  0.65892384  0.92052875  0.04560643     0.72700
O2545       O  0.71768716  0.54547772  0.05587620    -0.72200
O2546       O  0.75457949  0.57962688  0.01903048    -0.50900
C2547       C  0.73567905  0.57200102  0.04585658     0.74100
O2548       O  0.66758644  0.94689435  0.23403144    -0.67500
O2549       O  0.67070726  0.91271099  0.27042352    -0.54700
C2550       C  0.65911049  0.92034772  0.24390625     0.72400
Zr2551     Zr  0.70373160  0.99605003  0.25490422     2.77500
O2552       O  0.65787565  0.99652958  0.25798217    -0.98300
O2553       O  0.70381045  0.99494677  0.18611005    -0.79100
Zr2554     Zr  0.70321494  0.99613596  0.03409102     2.70100
O2555       O  0.65737264  0.99642911  0.02857345    -0.80400
O2556       O  0.70060599  0.99474207  0.10289358    -0.99400
Zr2557     Zr  0.71282183  0.93978327  0.31161891     2.21500
Zr2558     Zr  0.76902160  0.55222529  0.31149575     2.11100
O2559       O  0.71690437  0.52445383  0.31113890    -2.48100
O2560       O  0.68859649  0.96759402  0.31119518    -0.80100
O2561       O  0.75547214  0.52461399  0.25432000    -0.72300
O2562       O  0.72656231  0.96778006  0.03531823    -2.33300
O2563       O  0.72712018  0.96773841  0.25456000    -2.29500
O2564       O  0.75499242  0.52462159  0.03545892    -0.74100
H2565       H  0.81441451  0.53726566  0.31192800     0.77900
H2566       H  0.72022911  0.95531998  0.05743355     0.79000
H2567       H  0.70856292  0.53710215  0.31104238     0.81200
H2568       H  0.72089168  0.95519586  0.23252263     0.78800
H2569       H  0.76479571  0.00113996  0.11130152     0.41900
H2570       H  0.71937580  0.51170984  0.11112041     0.40800
H2571       H  0.64551559  0.98040489  0.01056881     0.40500
H2572       H  0.66281618  0.51502515  0.27110318     0.38400
H2573       H  0.72375591  0.49904393  0.17954051     0.41600
H2574       H  0.76132570  0.97976800  0.17899327     0.36400
H2575       H  0.82132561  0.98083627  0.27778308     0.42500
H2576       H  0.83813153  0.51543236  0.01776345     0.38900
H2577       H  0.65400396  0.99969047  0.23143615     0.43800
H2578       H  0.79439192  0.98846262  0.18084947     0.42500
H2579       H  0.83146096  0.99847967  0.05620795     0.42700
H2580       H  0.68566731  0.00022032  0.10909601     0.43000
C2581       C  0.74818945  0.85239040  0.39987586     0.79700
N2582       N  0.74562563  0.87346425  0.38111594    -0.78600
C2583       C  0.74824091  0.89702488  0.40016909     0.82100
N2584       N  0.75232044  0.89892018  0.43832584    -0.78600
C2585       C  0.75391292  0.87743002  0.45751496     0.82200
N2586       N  0.75229715  0.85440786  0.43806415    -0.80300
C2587       C  0.74793394  0.85213958  0.55673878     0.79700
N2588       N  0.74563943  0.87328783  0.57570523    -0.78600
C2589       C  0.74853935  0.89702371  0.55686173     0.82100
N2590       N  0.75261774  0.89900899  0.51867905    -0.78600
C2591       C  0.75390496  0.87739817  0.49930133     0.82200
N2592       N  0.75199911  0.85420718  0.51857012    -0.80300
C2593       C  0.63424129  0.89710448  0.55649757     0.79700
N2594       N  0.63205075  0.89922511  0.51834624    -0.78600
C2595       C  0.60891947  0.87787646  0.49900157     0.82100
N2596       N  0.58746417  0.85481084  0.51831447    -0.78600
C2597       C  0.58952064  0.85260952  0.55646788     0.82200
N2598       N  0.61321266  0.87349711  0.57536190    -0.80300
C2599       C  0.63408843  0.89728719  0.39965205     0.79700
N2600       N  0.63189462  0.89938894  0.43780278    -0.78600
C2601       C  0.60890897  0.87788317  0.45716569     0.82100
N2602       N  0.58761730  0.85468165  0.43787258    -0.78600
C2603       C  0.58968368  0.85249160  0.39972261     0.82200
N2604       N  0.61322995  0.87355458  0.38079749    -0.80300
C2605       C  0.58967017  0.73841885  0.39953832     0.79700
N2606       N  0.58775479  0.73452555  0.43776200    -0.78600
C2607       C  0.60920829  0.73295097  0.45715170     0.82100
N2608       N  0.63218684  0.73439276  0.43784385    -0.78600
C2609       C  0.63419677  0.73827400  0.39963542     0.82200
N2610       N  0.61320852  0.74085225  0.38065752    -0.80300
C2611       C  0.58975502  0.73887021  0.55637192     0.79700
N2612       N  0.61317826  0.74116747  0.57542074    -0.78600
C2613       C  0.63408047  0.73829319  0.55666357     0.82100
N2614       N  0.63207538  0.73427653  0.51844943    -0.78600
C2615       C  0.60921356  0.73301631  0.49897946     0.82200
N2616       N  0.58786103  0.73486088  0.51819275    -0.80300
C2617       C  0.89141769  0.64027790  0.55576549     0.79700
N2618       N  0.89364277  0.63788882  0.51775031    -0.78600
C2619       C  0.87233233  0.61467622  0.49860823     0.82100
N2620       N  0.84917577  0.59335378  0.51787733    -0.78600
C2621       C  0.84679761  0.59562262  0.55589653     0.82200
N2622       N  0.86769779  0.61939794  0.57468797    -0.80300
C2623       C  0.89116941  0.63982834  0.39955548     0.79700
N2624       N  0.86745813  0.61878181  0.38087718    -0.78600
C2625       C  0.84673492  0.59510552  0.39997765     0.82100
N2626       N  0.84921182  0.59305556  0.43798290    -0.78600
C2627       C  0.87233522  0.61454126  0.45701267     0.82200
N2628       N  0.89352063  0.63769007  0.43760798    -0.80300
C2629       C  0.84689521  0.75296382  0.40002584     0.79700
N2630       N  0.86777128  0.75007542  0.38118998    -0.78600
C2631       C  0.89128200  0.75250482  0.40018254     0.82100
N2632       N  0.89331639  0.75676342  0.43826137    -0.78600
C2633       C  0.87201949  0.75869134  0.45741884     0.82200
N2634       N  0.84905678  0.75722727  0.43811591    -0.80300
C2635       C  0.84655836  0.75241404  0.55629339     0.79700
N2636       N  0.86750557  0.74970803  0.57519348    -0.78600
C2637       C  0.89116831  0.75244119  0.55628354     0.82100
N2638       N  0.89329303  0.75681862  0.51823001    -0.78600
C2639       C  0.87193040  0.75857425  0.49901167     0.82200
N2640       N  0.84880046  0.75680040  0.51823338    -0.80300
C2641       C  0.73444517  0.59526593  0.55607272     0.79700
N2642       N  0.73710701  0.61891278  0.57498547    -0.78600
C2643       C  0.73425828  0.63980365  0.55613798     0.82100
N2644       N  0.72977870  0.63748735  0.51807868    -0.78600
C2645       C  0.72811135  0.61439979  0.49882105     0.82200
N2646       N  0.73001786  0.59310617  0.51801713    -0.80300
C2647       C  0.73419163  0.59524530  0.39984128     0.79700
N2648       N  0.73678451  0.61886166  0.38097748    -0.78600
C2649       C  0.73397400  0.63972490  0.39993790     0.82100
N2650       N  0.72963320  0.63743614  0.43800826    -0.78600
C2651       C  0.72802564  0.61437184  0.45720046     0.82200
N2652       N  0.72987288  0.59307885  0.43791814    -0.80300
O2653       O  0.76509112  0.81946163  0.38854454    -0.75900
O2654       O  0.72736005  0.81585182  0.35269425    -0.54800
C2655       C  0.74674364  0.82765175  0.37899012     0.77900
O2656       O  0.81305758  0.76872495  0.56653763    -0.60500
O2657       O  0.81069447  0.73225686  0.60397221    -0.53500
C2658       C  0.82179748  0.75095109  0.57688591     0.69900
O2659       O  0.76458887  0.81897899  0.56745323    -0.75000
O2660       O  0.72733415  0.81583739  0.60401324    -0.55600
C2661       C  0.74646691  0.82738227  0.57741818     0.75900
O2662       O  0.81339315  0.76930515  0.38962245    -0.60200
O2663       O  0.81090277  0.73265800  0.35244662    -0.53300
C2664       C  0.82211084  0.75148690  0.37939420     0.72500
Zr2665     Zr  0.77844879  0.78357095  0.36749202     2.54700
O2666       O  0.82445103  0.82943767  0.36094321    -0.80700
O2667       O  0.78078675  0.78568783  0.43633523    -0.94100
Zr2668     Zr  0.77813094  0.78316783  0.58825287     2.64700
O2669       O  0.82458072  0.82896374  0.59201756    -0.99100
O2670       O  0.77768123  0.78309042  0.51937303    -0.81200
O2671       O  0.76460638  0.79817845  0.64451275    -0.84500
O2672       O  0.79311318  0.76983397  0.64459123    -2.19200
O2673       O  0.71793945  0.67352167  0.39017447    -0.67900
O2674       O  0.75397562  0.67555278  0.35213697    -0.52500
C2675       C  0.73546245  0.66455872  0.37945426     0.70900
O2676       O  0.66711151  0.72136896  0.56792066    -0.60800
O2677       O  0.67038755  0.75886008  0.60403035    -0.52800
C2678       C  0.65875889  0.73960109  0.57758559     0.72700
O2679       O  0.71751313  0.67297006  0.56703424    -0.72200
O2680       O  0.75475589  0.67610057  0.60347181    -0.50900
C2681       C  0.73569755  0.66460394  0.57681971     0.74100
O2682       O  0.66742082  0.72164050  0.38900193    -0.67500
O2683       O  0.67043100  0.75876501  0.35234876    -0.54700
C2684       C  0.65893346  0.73967313  0.37897342     0.72400
Zr2685     Zr  0.70340583  0.70835308  0.36825669     2.77500
O2686       O  0.65744611  0.66205336  0.36524480    -0.98300
O2687       O  0.70247973  0.70917713  0.43710609    -0.79100
Zr2688     Zr  0.70306270  0.70794988  0.58887782     2.70100
O2689       O  0.65764115  0.66144491  0.59426444    -0.80400
O2690       O  0.70023706  0.70626772  0.52008389    -0.99400
Zr2691     Zr  0.71253685  0.77376674  0.64487883     2.21500
Zr2692     Zr  0.76885119  0.71772248  0.64491030     2.11100
O2693       O  0.71672968  0.69332414  0.64522399    -2.48100
O2694       O  0.68830841  0.72165606  0.64521210    -0.80100
O2695       O  0.75521196  0.73175895  0.36881346    -0.72300
O2696       O  0.72639475  0.75968914  0.58774970    -2.33300
O2697       O  0.72671340  0.76008190  0.36865740    -2.29500
O2698       O  0.75486682  0.73138775  0.58772190    -0.74100
H2699       H  0.81410141  0.77817102  0.64458596     0.77900
H2700       H  0.72005783  0.76585624  0.56567595     0.79000
H2701       H  0.70844608  0.67234272  0.64522377     0.81200
H2702       H  0.72048463  0.76643531  0.39065634     0.78800
H2703       H  0.76765210  0.76209819  0.51244819     0.41900
H2704       H  0.71987599  0.71042889  0.51177407     0.40800
H2705       H  0.64567728  0.66529774  0.61246932     0.40500
H2706       H  0.66183859  0.64905041  0.34979933     0.38400
H2707       H  0.71604050  0.72988578  0.44383029     0.41600
H2708       H  0.76200303  0.78396113  0.44436185     0.36400
H2709       H  0.81966140  0.84173077  0.34460962     0.42500
H2710       H  0.83776812  0.82408536  0.60621446     0.38900
H2711       H  0.65460194  0.65401427  0.39125587     0.43800
H2712       H  0.79571744  0.80617141  0.44222436     0.42500
H2713       H  0.83224750  0.83255931  0.56576181     0.42700
H2714       H  0.68711637  0.68534515  0.51395218     0.43000
O2715       O  0.53965126  0.81967633  0.56779019    -0.75900
O2716       O  0.57386081  0.81597676  0.60334486    -0.54800
C2717       C  0.56621422  0.82782002  0.57720682     0.77900
O2718       O  0.94112362  0.76887240  0.38982473    -0.60500
O2719       O  0.90700599  0.73213739  0.35271418    -0.53500
C2720       C  0.91459197  0.75096378  0.37965031     0.69900
O2721       O  0.53985648  0.81893218  0.38920694    -0.75000
O2722       O  0.57401900  0.81633925  0.35212467    -0.55600
C2723       C  0.56640655  0.82763788  0.37901856     0.75900
O2724       O  0.94101592  0.76880639  0.56646264    -0.60200
O2725       O  0.90697448  0.73239951  0.60399869    -0.53300
C2726       C  0.91451169  0.75103822  0.57685959     0.72500
Zr2727     Zr  0.99036392  0.78352918  0.58856317     2.54700
O2728       O  0.98919550  0.82889165  0.59441314    -0.80700
O2729       O  0.99055467  0.78580001  0.51970355    -0.94100
Zr2730     Zr  0.99049135  0.78340783  0.36788806     2.64700
O2731       O  0.99045650  0.82943685  0.36323938    -0.99100
O2732       O  0.99079898  0.78461616  0.43671999    -0.81200
O2733       O  0.51888792  0.79836030  0.64485330    -0.84500
O2734       O  0.96208195  0.76992563  0.64491274    -2.19200
O2735       O  0.94128007  0.67380665  0.56604744    -0.67900
O2736       O  0.90715910  0.67613311  0.60348419    -0.52500
C2737       C  0.91474916  0.66506283  0.57635077     0.70900
O2738       O  0.53978339  0.72156628  0.38837356    -0.60800
O2739       O  0.57396092  0.75924916  0.35244498    -0.52800
C2740       C  0.56634574  0.73987050  0.37874576     0.72700
O2741       O  0.94091105  0.67319024  0.38876349    -0.72200
O2742       O  0.90668578  0.67585646  0.35199694    -0.50900
C2743       C  0.91435242  0.66457786  0.37877489     0.74100
O2744       O  0.53986220  0.72212657  0.56713884    -0.67500
O2745       O  0.57396493  0.75940280  0.60362815    -0.54700
C2746       C  0.56639616  0.74028953  0.57702158     0.72400
Zr2747     Zr  0.99056434  0.70855797  0.58828790     2.77500
O2748       O  0.99000761  0.66214487  0.59073234    -0.98300
O2749       O  0.99160838  0.70950170  0.51950623    -0.79100
Zr2750     Zr  0.99045974  0.70836146  0.36768358     2.70100
O2751       O  0.98918978  0.66173022  0.36316336    -0.80400
O2752       O  0.99158907  0.70774597  0.43657141    -0.99400
Zr2753     Zr  0.54674422  0.77412164  0.64472898     2.21500
Zr2754     Zr  0.93436037  0.71782854  0.64474850     2.11100
O2755       O  0.96223131  0.69358675  0.64464393    -2.48100
O2756       O  0.51896565  0.72200995  0.64469308    -0.80100
O2757       O  0.96197354  0.73173231  0.58751121    -0.72300
O2758       O  0.51886343  0.76007254  0.36855774    -2.33300
O2759       O  0.51882171  0.76025743  0.58762414    -2.29500
O2760       O  0.96194738  0.73161651  0.36870503    -0.74100
H2761       H  0.94936357  0.77818434  0.64491362     0.77900
H2762       H  0.53137875  0.76626621  0.39062182     0.79000
H2763       H  0.94959130  0.67259635  0.64461809     0.81200
H2764       H  0.53133691  0.76656758  0.56556082     0.77900
H2765       H  0.48617748  0.76464721  0.44418462     0.41900
H2766       H  0.97433455  0.70917088  0.44446328     0.40800
H2767       H  0.50540873  0.66554291  0.34571889     0.40500
H2768       H  0.97200234  0.64880541  0.60493599     0.38400
H2769       H  0.98952898  0.72660682  0.51289006     0.41600
H2770       H  0.50697711  0.78293260  0.51189188     0.36400
H2771       H  0.50655132  0.84175399  0.61000137     0.42500
H2772       H  0.97307795  0.82489539  0.34767162     0.38900
H2773       H  0.98582888  0.65477658  0.56433748     0.43800
H2774       H  0.99729777  0.80656579  0.51380895     0.42500
H2775       H  0.98530247  0.83272767  0.38905648     0.42700
H2776       H  0.98649171  0.68748787  0.44309480     0.43000
O2777       O  0.76542874  0.94690726  0.56800895    -0.75900
O2778       O  0.72788593  0.91270153  0.60407719    -0.54800
C2779       C  0.74717439  0.92035178  0.57766995     0.77900
O2780       O  0.81313879  0.54529754  0.39013847    -0.60500
O2781       O  0.81071534  0.57934001  0.35264934    -0.53500
C2782       C  0.82187477  0.57177779  0.37967977     0.69900
O2783       O  0.76477232  0.94691064  0.38965240    -0.75000
O2784       O  0.72773361  0.91277555  0.35288653    -0.55600
C2785       C  0.74677433  0.92037622  0.37959689     0.75900
O2786       O  0.81341729  0.54568370  0.56651186    -0.60200
O2787       O  0.81081916  0.57977329  0.60367901    -0.53300
C2788       C  0.82202693  0.57223724  0.57662893     0.72500
Zr2789     Zr  0.77887984  0.99626415  0.58889806     2.54700
O2790       O  0.82557182  0.99775421  0.59475796    -0.80700
O2791       O  0.78084314  0.49580616  0.52006378    -0.94100
Zr2792     Zr  0.77826811  0.99608613  0.36812588     2.64700
O2793       O  0.82445831  0.99643199  0.36307762    -0.99100
O2794       O  0.77915138  0.49523350  0.43693376    -0.81200
O2795       O  0.76494973  0.96765700  0.64516559    -0.84500
O2796       O  0.79343408  0.52455156  0.64521630    -2.19200
O2797       O  0.71825953  0.54542943  0.56633303    -0.67900
O2798       O  0.75460657  0.57959910  0.60384018    -0.52500
C2799       C  0.73596713  0.57197519  0.57668133     0.70900
O2800       O  0.66729779  0.94707281  0.38866333    -0.60800
O2801       O  0.67060883  0.91285136  0.35259818    -0.52800
C2802       C  0.65892159  0.92052695  0.37893818     0.72700
O2803       O  0.71768408  0.54547648  0.38920467    -0.72200
O2804       O  0.75457987  0.57962665  0.35236411    -0.50900
C2805       C  0.73567740  0.57200023  0.37918780     0.74100
O2806       O  0.66759320  0.94689495  0.56736338    -0.67500
O2807       O  0.67071160  0.91271191  0.60375935    -0.54700
C2808       C  0.65911652  0.92034838  0.57723970     0.72400
Zr2809     Zr  0.70373475  0.99605177  0.58823792     2.77500
O2810       O  0.65787880  0.99653066  0.59132120    -0.98300
O2811       O  0.70380674  0.99494996  0.51944349    -0.79100
Zr2812     Zr  0.70321291  0.99613468  0.36742428     2.70100
O2813       O  0.65736900  0.99642515  0.36190984    -0.80400
O2814       O  0.70060645  0.99473830  0.43622720    -0.99400
Zr2815     Zr  0.71282470  0.93978499  0.64495586     2.21500
Zr2816     Zr  0.76902244  0.55222663  0.64482945     2.11100
O2817       O  0.71690552  0.52445482  0.64447220    -2.48100
O2818       O  0.68859916  0.96759570  0.64452929    -0.80100
O2819       O  0.75547442  0.52461545  0.58765347    -0.72300
O2820       O  0.72655994  0.96777864  0.36864983    -2.33300
O2821       O  0.72712303  0.96773987  0.58789644    -2.29500
O2822       O  0.75499110  0.52461969  0.36879152    -0.74100
H2823       H  0.81441357  0.53726458  0.64526274     0.77900
H2824       H  0.72022628  0.95531826  0.39076491     0.79000
H2825       H  0.70856409  0.53710320  0.64437495     0.81200
H2826       H  0.72089470  0.95519715  0.56585928     0.78800
H2827       H  0.76453986  0.00081729  0.44462311     0.41900
H2828       H  0.71937168  0.51171346  0.44445028     0.40800
H2829       H  0.64551457  0.98040518  0.34389885     0.40500
H2830       H  0.66282025  0.51502881  0.60443261     0.38400
H2831       H  0.72375737  0.49904043  0.51287333     0.41600
H2832       H  0.76133129  0.97976227  0.51233153     0.36400
H2833       H  0.82132436  0.98082831  0.61110356     0.42500
H2834       H  0.83812587  0.51542147  0.35107039     0.38900
H2835       H  0.65400140  0.99968275  0.56477392     0.43800
H2836       H  0.79440156  0.98847234  0.51418503     0.42500
H2837       H  0.83146367  0.99849167  0.38955280     0.42700
H2838       H  0.68565145  0.00019405  0.44243040     0.43000
C2839       C  0.74819063  0.85239086  0.73321086     0.79700
N2840       N  0.74562849  0.87346556  0.71445069    -0.78600
C2841       C  0.74824622  0.89702736  0.73350335     0.82100
N2842       N  0.75232684  0.89892312  0.77165995    -0.78600
C2843       C  0.75391763  0.87743209  0.79084935     0.82200
N2844       N  0.75229911  0.85440859  0.77139896    -0.80300
C2845       C  0.74793542  0.85214054  0.89007308     0.79700
N2846       N  0.74564192  0.87328949  0.90903926    -0.78600
C2847       C  0.74854377  0.89702610  0.89019548     0.82100
N2848       N  0.75262337  0.89901168  0.85201309    -0.78600
C2849       C  0.75390966  0.87740032  0.83263567     0.82200
N2850       N  0.75200165  0.85420844  0.85190460    -0.80300
C2851       C  0.63424047  0.89710479  0.88983049     0.79700
N2852       N  0.63204900  0.89922722  0.85167980    -0.78600
C2853       C  0.60891750  0.87787940  0.83233469     0.82100
N2854       N  0.58746262  0.85481284  0.85164657    -0.78600
C2855       C  0.58951984  0.85260958  0.88979942     0.82200
N2856       N  0.61321237  0.87349631  0.90869385    -0.80300
C2857       C  0.63408901  0.89729161  0.73298707     0.79700
N2858       N  0.63189379  0.89939312  0.77113750    -0.78600
C2859       C  0.60890741  0.87788730  0.79049911     0.82100
N2860       N  0.58761641  0.85468600  0.77120503    -0.78600
C2861       C  0.58968402  0.85249627  0.73305524     0.82200
N2862       N  0.61323103  0.87355934  0.71413137    -0.80300
C2863       C  0.58966757  0.73841627  0.73287138     0.79700
N2864       N  0.58775356  0.73452478  0.77109538    -0.78600
C2865       C  0.60920836  0.73295223  0.79048472     0.82100
N2866       N  0.63218681  0.73439434  0.77117656    -0.78600
C2867       C  0.63419522  0.73827335  0.73296794     0.82200
N2868       N  0.61320572  0.74084958  0.71399002    -0.80300
C2869       C  0.58975503  0.73886935  0.88970509     0.79700
N2870       N  0.61317866  0.74116722  0.90875375    -0.78600
C2871       C  0.63408174  0.73829466  0.88999606     0.82100
N2872       N  0.63207694  0.73427911  0.85178172    -0.78600
C2873       C  0.60921466  0.73301838  0.83231222     0.82200
N2874       N  0.58786154  0.73486140  0.85152586    -0.80300
C2875       C  0.89141981  0.64027860  0.88909878     0.79700
N2876       N  0.89364497  0.63788878  0.85108386    -0.78600
C2877       C  0.87233492  0.61467543  0.83194263     0.82100
N2878       N  0.84917880  0.59335315  0.85121225    -0.78600
C2879       C  0.84680059  0.59562270  0.88923125     0.82200
N2880       N  0.86770043  0.61939862  0.90802201    -0.80300
C2881       C  0.89116971  0.63982806  0.73289048     0.79700
N2882       N  0.86745803  0.61878171  0.71421258    -0.78600
C2883       C  0.84673507  0.59510524  0.73331303     0.82100
N2884       N  0.84921278  0.59305491  0.77131808    -0.78600
C2885       C  0.87233687  0.61454032  0.79034733     0.82200
N2886       N  0.89352187  0.63768926  0.77094256    -0.80300
C2887       C  0.84689334  0.75296241  0.73335900     0.79700
N2888       N  0.86776918  0.75007398  0.71452245    -0.78600
C2889       C  0.89127973  0.75250243  0.73351447     0.82100
N2890       N  0.89331435  0.75676061  0.77159351    -0.78600
C2891       C  0.87201791  0.75868902  0.79075163     0.82200
N2892       N  0.84905525  0.75722553  0.77144918    -0.80300
C2893       C  0.84655834  0.75241408  0.88962680     0.79700
N2894       N  0.86750583  0.74970884  0.90852709    -0.78600
C2895       C  0.89116829  0.75244154  0.88961710     0.82100
N2896       N  0.89329247  0.75681774  0.85156323    -0.78600
C2897       C  0.87192951  0.75857274  0.83234469     0.82200
N2898       N  0.84879988  0.75679944  0.85156659    -0.80300
C2899       C  0.73444822  0.59526711  0.88940594     0.79700
N2900       N  0.73711022  0.61891371  0.90831942    -0.78600
C2901       C  0.73426142  0.63980475  0.88947265     0.82100
N2902       N  0.72978178  0.63748904  0.85141342    -0.78600
C2903       C  0.72811423  0.61440171  0.83215515     0.82200
N2904       N  0.73002072  0.59310778  0.85135046    -0.80300
C2905       C  0.73419138  0.59524590  0.73317554     0.79700
N2906       N  0.73678466  0.61886231  0.71431147    -0.78600
C2907       C  0.73397546  0.63972636  0.73327180     0.82100
N2908       N  0.72963573  0.63743832  0.77134245    -0.78600
C2909       C  0.72802759  0.61437372  0.79053471     0.82200
N2910       N  0.72987327  0.59307993  0.77125240    -0.80300
O2911       O  0.76509082  0.81946131  0.72187909    -0.75900
O2912       O  0.72735964  0.81585224  0.68602967    -0.54800
C2913       C  0.74674351  0.82765172  0.71232532     0.77900
O2914       O  0.81305805  0.76872514  0.89987079    -0.60500
O2915       O  0.81069493  0.73225734  0.93730601    -0.53500
C2916       C  0.82179777  0.75095130  0.91021938     0.69900
O2917       O  0.76458818  0.81897816  0.90078621    -0.75000
O2918       O  0.72733515  0.81583824  0.93734824    -0.55600
C2919       C  0.74646733  0.82738256  0.91075237     0.75900
O2920       O  0.81339277  0.76930554  0.72295485    -0.60200
O2921       O  0.81089937  0.73265572  0.68578165    -0.53300
C2922       C  0.82210884  0.75148574  0.71272790     0.72500
Zr2923     Zr  0.77844801  0.78357081  0.70082526     2.54700
O2924       O  0.82445160  0.82943664  0.69427942    -0.80700
O2925       O  0.78078158  0.78568414  0.76966867    -0.94100
Zr2926     Zr  0.77813118  0.78316739  0.92158499     2.64700
O2927       O  0.82458020  0.82896455  0.92534366    -0.99100
O2928       O  0.77768269  0.78308392  0.85270499    -0.81200
O2929       O  0.76460719  0.79817817  0.97784508    -0.84500
O2930       O  0.79311466  0.76983443  0.97792362    -2.19200
O2931       O  0.71794063  0.67352303  0.72350819    -0.67900
O2932       O  0.75397532  0.67555297  0.68546868    -0.52500
C2933       C  0.73546331  0.66455979  0.71278744     0.70900
O2934       O  0.66711201  0.72136922  0.90125377    -0.60800
O2935       O  0.67038959  0.75886167  0.93736204    -0.52800
C2936       C  0.65876022  0.73960221  0.91091792     0.72700
O2937       O  0.71751427  0.67296918  0.90037011    -0.72200
O2938       O  0.75475853  0.67610148  0.93680637    -0.50900
C2939       C  0.73569975  0.66460418  0.91015495     0.74100
O2940       O  0.66741735  0.72163791  0.72233090    -0.67500
O2941       O  0.67043222  0.75876830  0.68568573    -0.54700
C2942       C  0.65893217  0.73967312  0.71230619     0.72400
Zr2943     Zr  0.70340517  0.70835294  0.70158899     2.77500
O2944       O  0.65744807  0.66205082  0.69857687    -0.98300
O2945       O  0.70248313  0.70918259  0.77043844    -0.79100
Zr2946     Zr  0.70306328  0.70794953  0.92221026     2.70100
O2947       O  0.65764041  0.66144529  0.92759159    -0.80400
O2948       O  0.70024271  0.70627176  0.85341586    -0.99400
Zr2949     Zr  0.71253776  0.77376643  0.97821185     2.21500
Zr2950     Zr  0.76885189  0.71772279  0.97824462     2.11100
O2951       O  0.71672995  0.69332354  0.97855702    -2.48100
O2952       O  0.68830883  0.72165547  0.97854468    -0.80100
O2953       O  0.75521114  0.73175892  0.70214446    -0.72300
O2954       O  0.72639513  0.75968873  0.92108227    -2.33300
O2955       O  0.72671266  0.76008166  0.70198989    -2.29500
O2956       O  0.75486735  0.73138742  0.92105589    -0.74100
H2957       H  0.81410285  0.77817152  0.97791818     0.77900
H2958       H  0.72005814  0.76585588  0.89900856     0.79000
H2959       H  0.70844659  0.67234220  0.97855693     0.81200
H2960       H  0.72048380  0.76643471  0.72398911     0.78800
H2961       H  0.76764241  0.76209081  0.84578336     0.41900
H2962       H  0.71988129  0.71043068  0.84510793     0.40800
H2963       H  0.64566492  0.66530547  0.94576773     0.40500
H2964       H  0.66184280  0.64904821  0.68313405     0.38400
H2965       H  0.71603799  0.72989307  0.77715988     0.41600
H2966       H  0.76199728  0.78395676  0.77769386     0.36400
H2967       H  0.81965827  0.84173887  0.67796979     0.42500
H2968       H  0.83776764  0.82408840  0.93954445     0.38900
H2969       H  0.65460337  0.65401289  0.72458874     0.43800
H2970       H  0.79571172  0.80616748  0.77555995     0.42500
H2971       H  0.83224740  0.83255686  0.89908818     0.42700
H2972       H  0.68712029  0.68534991  0.84728208     0.43000
O2973       O  0.53965034  0.81967439  0.90111898    -0.75900
O2974       O  0.57385974  0.81597686  0.93667668    -0.54800
C2975       C  0.56621328  0.82781930  0.91053734     0.77900
O2976       O  0.94112113  0.76886880  0.72315634    -0.60500
O2977       O  0.90700316  0.73213424  0.68604540    -0.53500
C2978       C  0.91458935  0.75096069  0.71298171     0.69900
O2979       O  0.53985740  0.81893511  0.72254112    -0.75000
O2980       O  0.57401956  0.81634486  0.68545505    -0.55600
C2981       C  0.56640729  0.82764244  0.71235061     0.75900
O2982       O  0.94101564  0.76880576  0.89979556    -0.60200
O2983       O  0.90697420  0.73240053  0.93733341    -0.53300
C2984       C  0.91451146  0.75103850  0.91019340     0.72500
Zr2985     Zr  0.99036371  0.78352862  0.92189573     2.54700
O2986       O  0.98919628  0.82889165  0.92774535    -0.80700
O2987       O  0.99055901  0.78580459  0.85303592    -0.94100
Zr2988     Zr  0.99048941  0.78340368  0.70122162     2.64700
O2989       O  0.99044766  0.82942904  0.69657628    -0.99100
O2990       O  0.99080350  0.78460934  0.77005398    -0.81200
O2991       O  0.51888765  0.79835920  0.97818528    -0.84500
O2992       O  0.96208197  0.76992603  0.97824509    -2.19200
O2993       O  0.94128155  0.67380790  0.89937981    -0.67900
O2994       O  0.90716033  0.67613450  0.93681588    -0.52500
C2995       C  0.91475073  0.66506413  0.90968300     0.70900
O2996       O  0.53978072  0.72156554  0.72170829    -0.60800
O2997       O  0.57395855  0.75924742  0.68577880    -0.52800
C2998       C  0.56634310  0.73986864  0.71207955     0.72700
O2999       O  0.94091097  0.67319285  0.72210131    -0.72200
O3000       O  0.90668538  0.67585309  0.68532805    -0.50900
C3001       C  0.91435234  0.66457769  0.71210970     0.74100
O3002       O  0.53986179  0.72212329  0.90047352    -0.67500
O3003       O  0.57396460  0.75940296  0.93695844    -0.54700
C3004       C  0.56639581  0.74028789  0.91035444     0.72400
Zr3005     Zr  0.99056494  0.70855726  0.92162253     2.77500
O3006       O  0.99000780  0.66214402  0.92407632    -0.98300
O3007       O  0.99160675  0.70949124  0.85284082    -0.79100
Zr3008     Zr  0.99045950  0.70835991  0.70101632     2.70100
O3009       O  0.98919119  0.66172823  0.69652018    -0.80400
O3010       O  0.99159443  0.70775847  0.76990413    -0.99400
Zr3011     Zr  0.54674409  0.77412075  0.97806021     2.21500
Zr3012     Zr  0.93436062  0.71782909  0.97808143     2.11100
O3013       O  0.96223096  0.69358636  0.97797790    -2.48100
O3014       O  0.51896514  0.72200919  0.97802613    -0.80100
O3015       O  0.96197400  0.73173167  0.92084401    -0.72300
O3016       O  0.51886291  0.76007576  0.70189198    -2.33300
O3017       O  0.51882149  0.76025648  0.92095544    -2.29500
O3018       O  0.96194508  0.73161262  0.70203702    -0.74100
H3019       H  0.94936359  0.77818473  0.97824577     0.77900
H3020       H  0.53137820  0.76626905  0.72395621     0.79000
H3021       H  0.94959054  0.67259601  0.97795218     0.81200
H3022       H  0.53133658  0.76656633  0.89889206     0.77900
H3023       H  0.48622507  0.76467674  0.77751981     0.41900
H3024       H  0.97434742  0.70919737  0.77779407     0.40800
H3025       H  0.50536509  0.66553295  0.67896077     0.40500
H3026       H  0.97200036  0.64880468  0.93827606     0.38400
H3027       H  0.98956351  0.72661696  0.84622103     0.41600
H3028       H  0.50697218  0.78292717  0.84522384     0.36400
H3029       H  0.50655173  0.84175059  0.94334762     0.42500
H3030       H  0.97304392  0.82487542  0.68105600     0.38900
H3031       H  0.98583312  0.65477543  0.89768142     0.43800
H3032       H  0.99729122  0.80656850  0.84714384     0.42500
H3033       H  0.98533537  0.83273975  0.72240776     0.42700
H3034       H  0.98648524  0.68749828  0.77643479     0.43000
O3035       O  0.76543233  0.94690933  0.90134172    -0.75900
O3036       O  0.72788823  0.91270343  0.93740815    -0.54800
C3037       C  0.74717790  0.92035393  0.91100251     0.77900
O3038       O  0.81313595  0.54529737  0.72347585    -0.60500
O3039       O  0.81071749  0.57934024  0.68598180    -0.53500
C3040       C  0.82187445  0.57177772  0.71301500     0.69900
O3041       O  0.76477380  0.94691282  0.72298922    -0.75000
O3042       O  0.72773935  0.91277721  0.68621901    -0.55600
C3043       C  0.74677861  0.92037829  0.71293128     0.75900
O3044       O  0.81342036  0.54568423  0.89984611    -0.60200
O3045       O  0.81082116  0.57977327  0.93701293    -0.53300
C3046       C  0.82202979  0.57223754  0.90996347     0.72500
Zr3047     Zr  0.77888030  0.99626524  0.92222909     2.54700
O3048       O  0.82557306  0.99775669  0.92809007    -0.80700
O3049       O  0.78084525  0.49580875  0.85339863    -0.94100
Zr3050     Zr  0.77826988  0.99608809  0.70146053     2.64700
O3051       O  0.82446056  0.99643664  0.69639723    -0.99100
O3052       O  0.77914628  0.49523322  0.77026840    -0.81200
O3053       O  0.76495003  0.96765762  0.97849618    -0.84500
O3054       O  0.79343579  0.52455299  0.97855104    -2.19200
O3055       O  0.71826032  0.54543031  0.89966805    -0.67900
O3056       O  0.75461063  0.57960021  0.93717101    -0.52500
C3057       C  0.73596981  0.57197618  0.91001404     0.70900
O3058       O  0.66729958  0.94707684  0.72199994    -0.60800
O3059       O  0.67061106  0.91285522  0.68593567    -0.52800
C3060       C  0.65892327  0.92053105  0.71227479     0.72700
O3061       O  0.71768244  0.54547712  0.72253845    -0.72200
O3062       O  0.75458087  0.57962696  0.68570064    -0.50900
C3063       C  0.73567701  0.57200068  0.71252262     0.74100
O3064       O  0.66759197  0.94689516  0.90069805    -0.67500
O3065       O  0.67071219  0.91271152  0.93709034    -0.54700
C3066       C  0.65911601  0.92034836  0.91057263     0.72400
Zr3067     Zr  0.70373416  0.99605220  0.92157181     2.77500
O3068       O  0.65787700  0.99652886  0.92465564    -0.98300
O3069       O  0.70380760  0.99494985  0.85277769    -0.79100
Zr3070     Zr  0.70321477  0.99613709  0.70075767     2.70100
O3071       O  0.65737613  0.99643650  0.69523083    -0.80400
O3072       O  0.70059784  0.99474363  0.76955993    -0.99400
Zr3073     Zr  0.71282508  0.93978525  0.97828663     2.21500
Zr3074     Zr  0.76902324  0.55222697  0.97816265     2.11100
O3075       O  0.71690618  0.52445560  0.97780786    -2.48100
O3076       O  0.68859889  0.96759531  0.97786220    -0.80100
O3077       O  0.75547510  0.52461615  0.92098714    -0.72300
O3078       O  0.72656178  0.96778060  0.70198737    -2.33300
O3079       O  0.72712342  0.96774121  0.92122833    -2.29500
O3080       O  0.75499097  0.52462129  0.70212573    -0.74100
H3081       H  0.81441522  0.53726620  0.97859753     0.77900
H3082       H  0.72022851  0.95532088  0.72410309     0.79000
H3083       H  0.70856473  0.53710397  0.97771071     0.81200
H3084       H  0.72089513  0.95519869  0.89919089     0.78800
H3085       H  0.76495234  0.00133710  0.77797773     0.41900
H3086       H  0.71936684  0.51171742  0.77778587     0.40800
H3087       H  0.64551418  0.98040410  0.67723894     0.40500
H3088       H  0.66282072  0.51502952  0.93776932     0.38400
H3089       H  0.72375743  0.49904100  0.84620890     0.41600
H3090       H  0.76132050  0.97977466  0.84565890     0.36400
H3091       H  0.82132831  0.98083749  0.94444771     0.42500
H3092       H  0.83812257  0.51541630  0.68440626     0.38900
H3093       H  0.65400338  0.99968892  0.89811004     0.43800
H3094       H  0.79438210  0.98845186  0.84751310     0.42500
H3095       H  0.83144678  0.99844989  0.72287633     0.42700
H3096       H  0.68566712  0.00023357  0.77575859     0.43000
loop_ 
_geom_bond_atom_site_label_1 
_geom_bond_atom_site_label_2 
_geom_bond_distance 
_geom_bond_site_symmetry_2 
_ccdc_geom_bond_type 
C1            N2   1.358       .  A
C1            N6   1.360       .  A
C1           C75   1.467       .  S
N2            C3   1.358       .  A
C3            N4   1.359       .  A
C3          C205   1.465       .  S
N4            C5   1.359       .  A
C5            N6   1.360       .  A
C5           C11   1.474       .  S
C7            N8   1.357       .  A
C7           N12   1.359       .  A
C7           C81   1.464       .  S
N8            C9   1.357       .  A
C9           N10   1.359       .  A
C9          C199   1.465       .  S
N10          C11   1.360       .  A
C11          N12   1.359       .  A
C13          N14   1.360       .  A
C13          N18   1.358       .  A
C13         C228   1.467       .  S
N14          C15   1.360       .  A
C15          N16   1.360       .  A
C15          C21   1.475       .  S
N16          C17   1.360       .  A
C17          N18   1.358       .  A
C17         C137   1.466       .  S
C19          N20   1.360       .  A
C19          N24   1.358       .  A
C19         C222   1.465       .  S
N20          C21   1.360       .  A
C21          N22   1.360       .  A
N22          C23   1.359       .  A
C23          N24   1.358       .  A
C23         C143   1.467       .  S
C25          N26   1.360       .  A
C25          N30   1.358       .  A
C25         C160   1.467       .  S
N26          C27   1.360       .  A
C27          N28   1.359       .  A
C27          C35   1.475       .  S
N28          C29   1.359       .  A
C29          N30   1.358       .  A
C29         C104   1.464       .  S
C31          N32   1.358       .  A
C31          N36   1.359       .  A
C31         C166   1.465       .  S
N32          C33   1.358       .  A
C33          N34   1.360       .  A
C33          C98   1.468       .  S
N34          C35   1.361       .  A
C35          N36   1.359       .  A
C37          N38   1.357       .  A
C37          N42   1.359       .  A
C37         C157   1.464       .  S
N38          C39   1.358       .  A
C39          N40   1.359       .  A
C39          C47   1.467       .  S
N40          C41   1.358       .  A
C41          N42   1.359       .  A
C41         C208   1.467       .  S
C43          N44   1.358       .  A
C43          N48   1.358       .  A
C43         C163   1.463       .  S
N44          C45   1.358       .  A
C45          N46   1.356       .  A
C45         C202   1.461       .  S
N46          C47   1.357       .  A
C47          N48   1.358       .  A
C49          N50   1.359       .  A
C49          N54   1.357       .  A
C49          C84   1.464       .  S
N50          C51   1.358       .  A
C51          N52   1.357       .  A
C51         C140   1.464       .  S
N52          C53   1.358       .  A
C53          N54   1.358       .  A
C53          C59   1.467       .  S
C55          N56   1.358       .  A
C55          N60   1.357       .  A
C55          C78   1.463       .  S
N56          C57   1.358       .  A
C57          N58   1.357       .  A
C57         C146   1.463       .  S
N58          C59   1.358       .  A
C59          N60   1.358       .  A
C61          N62   1.359       .  A
C61          N66   1.357       .  A
C61         C219   1.464       .  S
N62          C63   1.359       .  A
C63          N64   1.358       .  A
C63         C101   1.467       .  S
N64          C65   1.359       .  A
C65          N66   1.358       .  A
C65          C71   1.468       .  S
C67          N68   1.358       .  A
C67          N72   1.357       .  A
C67         C225   1.462       .  S
N68          C69   1.358       .  A
C69          N70   1.357       .  A
C69          C95   1.464       .  S
N70          C71   1.358       .  A
C71          N72   1.358       .  A
O73         Zr85   2.443       .  S
O73          C75   1.287       .  A
O74        Zr627   2.432   1_554  S
O74          C75   1.287       .  A
O76         Zr88   2.443       .  S
O76          C78   1.288       .  A
O77        Zr112   2.419       .  S
O77          C78   1.285       .  A
O79         Zr88   2.443       .  S
O79          C81   1.288       .  A
O80        Zr111   2.425       .  S
O80          C81   1.286       .  A
O82         Zr85   2.442       .  S
O82          C84   1.288       .  A
O83        Zr628   2.424   1_554  S
O83          C84   1.285       .  A
Zr85         O86   2.435       .  S
Zr85         O87   2.431       .  S
Zr85        O115   2.372       .  S
Zr85        O117   2.368       .  S
Zr85        O607   2.374   1_554  S
Zr85        O608   2.370   1_554  S
O86         H129   0.990       .  S
O87         H128   0.990       .  S
O87         H132   0.990       .  S
Zr88         O89   2.438       .  S
Zr88         O90   2.429       .  S
Zr88         O92   2.372       .  S
Zr88         O91   2.374       .  S
Zr88        O116   2.368       .  S
Zr88        O118   2.370       .  S
O89         H130   0.990       .  S
O89         H133   0.990       .  S
O90         H123   0.990       .  S
O91        Zr111   2.381       .  S
O91        Zr343   2.374       .  S
O92        Zr112   2.383       .  S
O92        Zr343   2.370       .  S
O92         H119   0.966       .  S
O93        Zr105   2.444       .  S
O93          C95   1.288       .  A
O94        Zr628   2.422   1_554  S
O94          C95   1.285       .  A
O96        Zr108   2.447       .  S
O96          C98   1.288       .  A
O97        Zr111   2.427       .  S
O97          C98   1.287       .  A
O99        Zr108   2.447       .  S
O99         C101   1.288       .  A
O100       Zr112   2.425       .  S
O100        C101   1.286       .  A
O102       Zr105   2.442       .  S
O102        C104   1.287       .  A
O103       Zr627   2.424   1_554  S
O103        C104   1.286       .  A
Zr105       O106   2.437       .  S
Zr105       O107   2.429       .  S
Zr105       O117   2.368       .  S
Zr105       O115   2.371       .  S
Zr105       O629   2.373   1_554  S
Zr105       O630   2.375   1_554  S
O106        H126   0.990       .  S
O106        H131   0.990       .  S
O107        H127   0.990       .  S
Zr108       O109   2.433       .  S
Zr108       O110   2.430       .  S
Zr108       O114   2.375       .  S
Zr108       O113   2.371       .  S
Zr108       O118   2.371       .  S
Zr108       O116   2.369       .  S
O109        H125   0.990       .  S
O110        H124   0.990       .  S
O110        H134   0.990       .  S
Zr111       O332   2.432       .  S
Zr111       O361   2.424       .  S
Zr111       O114   2.383       .  S
Zr111       O116   2.385       .  S
Zr111       O375   2.383       .  S
Zr112       O341   2.424       .  S
Zr112       O352   2.422       .  S
Zr112       O113   2.383       .  S
Zr112       O118   2.380       .  S
Zr112       O373   2.382       .  S
O113       Zr363   2.373       .  S
O113        H121   0.966       .  S
O114       Zr363   2.375       .  S
O115       Zr628   2.382   1_554  S
O116        H120   0.966       .  S
O117       Zr627   2.383   1_554  S
O117        H122   0.966       .  S
O135      Zr1695   2.445   1_455  S
O135        C137   1.287       .  A
O136       Zr173   2.428       .  S
O136        C137   1.287       .  A
O138       Zr150   2.444       .  S
O138        C140   1.288       .  A
O139       Zr690   2.421   1_554  S
O139        C140   1.285       .  A
O141      Zr1698   2.446   1_455  S
O141        C143   1.288       .  A
O142       Zr689   2.427   1_554  S
O142        C143   1.287       .  A
O144       Zr147   2.443       .  S
O144        C146   1.288       .  A
O145       Zr174   2.420       .  S
O145        C146   1.285       .  A
Zr147      O1683   2.445       .  S
Zr147       O148   2.434       .  S
Zr147       O149   2.431       .  S
Zr147       O154   2.371       .  S
Zr147       O177   2.371       .  S
Zr147      O1701   2.375       .  S
Zr147      O1727   2.368       .  S
O148       H1739   0.990       .  S
O149        H194   0.990       .  S
O149       H1738   0.990       .  S
Zr150      O1689   2.446       .  S
Zr150       O151   2.435       .  S
Zr150       O152   2.428       .  S
Zr150       O180   2.371       .  S
Zr150       O670   2.373   1_554  S
Zr150      O2217   2.374   1_554  S
Zr150      O1726   2.367       .  S
O151        H192   0.990       .  S
O151        H195   0.990       .  S
O152       H1733   0.990       .  S
O153       Zr173   2.383       .  S
O153      Zr1695   2.375   1_455  S
O153      Zr1956   2.374   1_455  S
O154       Zr174   2.382       .  S
O154       Zr408   2.373       .  S
O154        H181   0.966       .  S
O155       Zr167   2.444       .  S
O155        C157   1.288       .  A
O156       Zr174   2.421       .  S
O156        C157   1.285       .  A
O158      Zr1718   2.445   1_455  S
O158        C160   1.288       .  A
O159       Zr689   2.429   1_554  S
O159        C160   1.287       .  A
O161       Zr170   2.445       .  S
O161        C163   1.288       .  A
O162       Zr690   2.419   1_554  S
O162        C163   1.285       .  A
O164      Zr1715   2.444   1_455  S
O164        C166   1.288       .  A
O165       Zr173   2.425       .  S
O165        C166   1.286       .  A
Zr167      O1712   2.444       .  S
Zr167       O168   2.436       .  S
Zr167       O169   2.426       .  S
Zr167       O175   2.372       .  S
Zr167       O177   2.370       .  S
Zr167      O1724   2.376       .  S
Zr167      O1727   2.366       .  S
O168        H188   0.990       .  S
O168        H193   0.990       .  S
O169        H189   0.990       .  S
Zr170      O1706   2.445       .  S
Zr170       O171   2.433       .  S
Zr170       O172   2.431       .  S
Zr170       O180   2.370       .  S
Zr170      O2240   2.376   1_554  S
Zr170       O691   2.370   1_554  S
Zr170      O1726   2.367       .  S
O171       H1735   0.990       .  S
O172        H186   0.990       .  S
O172        H196   0.990       .  S
Zr173       O400   2.427       .  S
Zr173       O417   2.429       .  S
Zr173       O176   2.383       .  S
Zr173       O179   2.384       .  S
Zr173       O436   2.385       .  S
Zr174       O397   2.422       .  S
Zr174       O420   2.419       .  S
Zr174       O175   2.383       .  S
Zr174       O177   2.380       .  S
Zr174       O438   2.381       .  S
O175       Zr428   2.370       .  S
O175        H183   0.966       .  S
O176      Zr1715   2.376   1_455  S
O176      Zr1976   2.376   1_455  S
O178      Zr1698   2.367   1_455  S
O178      Zr1718   2.367   1_455  S
O178       Zr689   2.385   1_554  S
O178        H182   0.966       .  S
O179      Zr1695   2.368   1_455  S
O179      Zr1715   2.366   1_455  S
O179        H184   0.966       .  S
O180       Zr690   2.381   1_554  S
H185       O1700   0.990       .  S
H187       O1719   0.990   1_455  S
H190       O1697   0.990   1_455  S
H191       O1696   0.990   1_455  S
O197       Zr209   2.446       .  S
O197        C199   1.288       .  A
O198       Zr235   2.426       .  S
O198        C199   1.287       .  A
O200       Zr986   2.440   1_545  S
O200        C202   1.287       .  A
O201       Zr752   2.418   1_554  S
O201        C202   1.285       .  A
O203       Zr212   2.443       .  S
O203        C205   1.288       .  A
O204       Zr751   2.427   1_554  S
O204        C205   1.286       .  A
O206       Zr983   2.448   1_545  S
O206        C208   1.289       .  A
O207       Zr236   2.424       .  S
O207        C208   1.286       .  A
Zr209       O980   2.448       .  S
Zr209       O210   2.434       .  S
Zr209       O985   2.430       .  S
Zr209       O215   2.376       .  S
Zr209       O241   2.370       .  S
Zr209       O990   2.370       .  S
Zr209      O1013   2.369       .  S
O210        H253   0.990       .  S
O211       Zr983   2.430       .  S
O211       H1026   0.990       .  S
O211       H1030   0.990       .  S
Zr212       O974   2.440       .  S
Zr212       O213   2.435       .  S
Zr212       O988   2.428       .  S
Zr212       O240   2.367       .  S
Zr212      O1506   2.373   1_554  S
Zr212       O731   2.373   1_554  S
Zr212      O1016   2.372       .  S
O213        H257   0.990       .  S
O213       H1028   0.990       .  S
O214       Zr986   2.428       .  S
O214       H1021   0.990   1_565  S
O215       Zr235   2.384       .  S
O215       Zr470   2.373       .  S
O216       Zr236   2.382       .  S
O216       Zr983   2.370   1_545  S
O216      Zr1244   2.373   1_545  S
O216        H243   0.966       .  S
O217      Zr1003   2.445   1_545  S
O217        C219   1.288       .  A
O218       Zr236   2.420       .  S
O218        C219   1.285       .  A
O220       Zr232   2.439       .  S
O220        C222   1.287       .  A
O221       Zr751   2.430   1_554  S
O221        C222   1.287       .  A
O223      Zr1006   2.442   1_545  S
O223        C225   1.287       .  A
O224       Zr752   2.419   1_554  S
O224        C225   1.285       .  A
O226       Zr229   2.441       .  S
O226        C228   1.287       .  A
O227       Zr235   2.432       .  S
O227        C228   1.288       .  A
Zr229       O991   2.445       .  S
Zr229       O230   2.435       .  S
Zr229       O231   2.427       .  S
Zr229       O238   2.374       .  S
Zr229       O241   2.366       .  S
Zr229      O1011   2.371       .  S
Zr229      O1013   2.369       .  S
O230        H255   0.990       .  S
O230       H1024   0.990       .  S
O231       H1025   0.990       .  S
Zr232       O997   2.442       .  S
Zr232       O233   2.435       .  S
Zr232       O234   2.429       .  S
Zr232       O240   2.367       .  S
Zr232       O754   2.374   1_554  S
Zr232      O1527   2.370   1_554  S
Zr232      O1016   2.371       .  S
O233        H249   0.990       .  S
O234        H258   0.990       .  S
O234       H1022   0.990       .  S
Zr235       O462   2.427       .  S
Zr235       O479   2.430       .  S
Zr235       O238   2.380       .  S
Zr235       O241   2.384       .  S
Zr235       O498   2.384       .  S
Zr236       O459   2.418       .  S
Zr236       O482   2.419       .  S
Zr236       O237   2.383       .  S
Zr236       O239   2.379       .  S
Zr236       O500   2.382       .  S
O237      Zr1003   2.371   1_545  S
O237      Zr1264   2.370   1_545  S
O237        H245   0.966       .  S
O238       Zr490   2.373       .  S
O239       Zr983   2.369   1_545  S
O239      Zr1003   2.369   1_545  S
O240       Zr751   2.384   1_554  S
O240        H244   0.966       .  S
O241        H246   0.966       .  S
O242       Zr986   2.372   1_545  S
O242      Zr1006   2.371   1_545  S
O242       Zr752   2.382   1_554  S
H247        O988   0.990       .  S
H248       O1008   0.990   1_545  S
H250       O1004   0.990   1_545  S
H251       O1005   0.990       .  S
H252        O985   0.990       .  S
H254        O987   0.990   1_545  S
H256        O985   0.990       .  S
C259        N260   1.358       .  A
C259        N264   1.360       .  A
C259        C333   1.467       .  S
N260        C261   1.358       .  A
C261        N262   1.359       .  A
C261        C463   1.465       .  S
N262        C263   1.359       .  A
C263        N264   1.360       .  A
C263        C269   1.474       .  S
C265        N266   1.357       .  A
C265        N270   1.359       .  A
C265        C339   1.464       .  S
N266        C267   1.357       .  A
C267        N268   1.359       .  A
C267        C457   1.465       .  S
N268        C269   1.360       .  A
C269        N270   1.359       .  A
C271        N272   1.360       .  A
C271        N276   1.358       .  A
C271        C486   1.467       .  S
N272        C273   1.360       .  A
C273        N274   1.360       .  A
C273        C279   1.475       .  S
N274        C275   1.360       .  A
C275        N276   1.358       .  A
C275        C395   1.466       .  S
C277        N278   1.360       .  A
C277        N282   1.358       .  A
C277        C480   1.466       .  S
N278        C279   1.360       .  A
C279        N280   1.360       .  A
N280        C281   1.359       .  A
C281        N282   1.358       .  A
C281        C401   1.467       .  S
C283        N284   1.360       .  A
C283        N288   1.358       .  A
C283        C418   1.467       .  S
N284        C285   1.360       .  A
C285        N286   1.359       .  A
C285        C293   1.475       .  S
N286        C287   1.359       .  A
C287        N288   1.358       .  A
C287        C362   1.464       .  S
C289        N290   1.358       .  A
C289        N294   1.359       .  A
C289        C424   1.465       .  S
N290        C291   1.358       .  A
C291        N292   1.360       .  A
C291        C356   1.468       .  S
N292        C293   1.361       .  A
C293        N294   1.359       .  A
C295        N296   1.357       .  A
C295        N300   1.359       .  A
C295        C415   1.464       .  S
N296        C297   1.358       .  A
C297        N298   1.359       .  A
C297        C305   1.467       .  S
N298        C299   1.357       .  A
C299        N300   1.359       .  A
C299        C466   1.467       .  S
C301        N302   1.358       .  A
C301        N306   1.358       .  A
C301        C421   1.463       .  S
N302        C303   1.358       .  A
C303        N304   1.356       .  A
C303        C460   1.461       .  S
N304        C305   1.357       .  A
C305        N306   1.358       .  A
C307        N308   1.359       .  A
C307        N312   1.357       .  A
C307        C342   1.464       .  S
N308        C309   1.358       .  A
C309        N310   1.357       .  A
C309        C398   1.464       .  S
N310        C311   1.358       .  A
C311        N312   1.358       .  A
C311        C317   1.467       .  S
C313        N314   1.358       .  A
C313        N318   1.357       .  A
C313        C336   1.463       .  S
N314        C315   1.358       .  A
C315        N316   1.357       .  A
C315        C404   1.463       .  S
N316        C317   1.358       .  A
C317        N318   1.358       .  A
C319        N320   1.359       .  A
C319        N324   1.357       .  A
C319        C477   1.464       .  S
N320        C321   1.359       .  A
C321        N322   1.358       .  A
C321        C359   1.467       .  S
N322        C323   1.359       .  A
C323        N324   1.358       .  A
C323        C329   1.468       .  S
C325        N326   1.358       .  A
C325        N330   1.357       .  A
C325        C483   1.462       .  S
N326        C327   1.358       .  A
C327        N328   1.357       .  A
C327        C353   1.464       .  S
N328        C329   1.358       .  A
C329        N330   1.358       .  A
O331       Zr343   2.443       .  S
O331        C333   1.287       .  A
O332        C333   1.287       .  A
O334       Zr346   2.443       .  S
O334        C336   1.288       .  A
O335       Zr370   2.419       .  S
O335        C336   1.285       .  A
O337       Zr346   2.443       .  S
O337        C339   1.288       .  A
O338       Zr369   2.425       .  S
O338        C339   1.286       .  A
O340       Zr343   2.442       .  S
O340        C342   1.288       .  A
O341        C342   1.285       .  A
Zr343       O344   2.435       .  S
Zr343       O345   2.431       .  S
Zr343       O373   2.372       .  S
Zr343       O375   2.368       .  S
O344        H387   0.990       .  S
O345        H386   0.990       .  S
O345        H390   0.990       .  S
Zr346       O347   2.438       .  S
Zr346       O348   2.429       .  S
Zr346       O350   2.372       .  S
Zr346       O349   2.374       .  S
Zr346       O374   2.368       .  S
Zr346       O376   2.370       .  S
O347        H388   0.990       .  S
O347        H391   0.990       .  S
O348        H381   0.990       .  S
O349       Zr601   2.374       .  S
O349       Zr369   2.381       .  S
O350       Zr601   2.370       .  S
O350       Zr370   2.383       .  S
O350        H377   0.966       .  S
O351       Zr363   2.444       .  S
O351        C353   1.288       .  A
O352        C353   1.285       .  A
O354       Zr366   2.447       .  S
O354        C356   1.288       .  A
O355       Zr369   2.427       .  S
O355        C356   1.287       .  A
O357       Zr366   2.447       .  S
O357        C359   1.288       .  A
O358       Zr370   2.425       .  S
O358        C359   1.286       .  A
O360       Zr363   2.442       .  S
O360        C362   1.287       .  A
O361        C362   1.286       .  A
Zr363       O364   2.437       .  S
Zr363       O365   2.429       .  S
Zr363       O375   2.368       .  S
Zr363       O373   2.371       .  S
O364        H384   0.990       .  S
O364        H389   0.990       .  S
O365        H385   0.990       .  S
Zr366       O367   2.433       .  S
Zr366       O368   2.430       .  S
Zr366       O372   2.375       .  S
Zr366       O371   2.371       .  S
Zr366       O376   2.371       .  S
Zr366       O374   2.369       .  S
O367        H383   0.990       .  S
O368        H382   0.990       .  S
O368        H392   0.990       .  S
Zr369       O590   2.432       .  S
Zr369       O619   2.424       .  S
Zr369       O372   2.383       .  S
Zr369       O374   2.385       .  S
Zr369       O633   2.383       .  S
Zr370       O599   2.424       .  S
Zr370       O610   2.422       .  S
Zr370       O371   2.383       .  S
Zr370       O631   2.382       .  S
Zr370       O376   2.380       .  S
O371       Zr621   2.373       .  S
O371        H379   0.966       .  S
O372       Zr621   2.375       .  S
O374        H378   0.966       .  S
O375        H380   0.966       .  S
O393      Zr1953   2.445   1_455  S
O393        C395   1.287       .  A
O394       Zr431   2.428       .  S
O394        C395   1.287       .  A
O396       Zr408   2.444       .  S
O396        C398   1.288       .  A
O397        C398   1.285       .  A
O399      Zr1956   2.446   1_455  S
O399        C401   1.288       .  A
O400        C401   1.287       .  A
O402       Zr405   2.443       .  S
O402        C404   1.288       .  A
O403       Zr432   2.420       .  S
O403        C404   1.285       .  A
Zr405      O1941   2.445       .  S
Zr405       O406   2.434       .  S
Zr405       O407   2.431       .  S
Zr405      O1959   2.375       .  S
Zr405       O412   2.371       .  S
Zr405       O435   2.371       .  S
Zr405      O1985   2.368       .  S
O406       H1997   0.990       .  S
O407       H1996   0.990       .  S
O407        H452   0.990       .  S
Zr408      O1947   2.446       .  S
Zr408       O409   2.435       .  S
Zr408       O410   2.428       .  S
Zr408      O1701   2.374       .  S
Zr408      O1984   2.367       .  S
Zr408       O438   2.371       .  S
O409        H450   0.990       .  S
O409        H453   0.990       .  S
O410       H1991   0.990       .  S
O411      Zr1953   2.375   1_455  S
O411      Zr2214   2.374   1_455  S
O411       Zr431   2.383       .  S
O412       Zr666   2.373       .  S
O412       Zr432   2.382       .  S
O412        H439   0.966       .  S
O413       Zr425   2.444       .  S
O413        C415   1.288       .  A
O414       Zr432   2.421       .  S
O414        C415   1.285       .  A
O416      Zr1976   2.445   1_455  S
O416        C418   1.288       .  A
O417        C418   1.287       .  A
O419       Zr428   2.446       .  S
O419        C421   1.288       .  A
O420        C421   1.285       .  A
O422      Zr1973   2.444   1_455  S
O422        C424   1.288       .  A
O423       Zr431   2.425       .  S
O423        C424   1.286       .  A
Zr425      O1970   2.444       .  S
Zr425       O426   2.436       .  S
Zr425       O427   2.426       .  S
Zr425       O433   2.372       .  S
Zr425      O1982   2.376       .  S
Zr425      O1985   2.366       .  S
Zr425       O435   2.370       .  S
O426        H446   0.990       .  S
O426        H451   0.990       .  S
O427        H447   0.990       .  S
Zr428      O1964   2.445       .  S
Zr428       O429   2.433       .  S
Zr428       O430   2.431       .  S
Zr428      O1724   2.376       .  S
Zr428       O438   2.370       .  S
Zr428      O1984   2.367       .  S
O429       H1993   0.990       .  S
O430        H444   0.990       .  S
O430        H454   0.990       .  S
Zr431       O658   2.427       .  S
Zr431       O675   2.429       .  S
Zr431       O434   2.383       .  S
Zr431       O694   2.385       .  S
Zr431       O437   2.384       .  S
Zr432       O655   2.422       .  S
Zr432       O678   2.419       .  S
Zr432       O433   2.383       .  S
Zr432       O435   2.380       .  S
Zr432       O696   2.381       .  S
O433       Zr686   2.370       .  S
O433        H441   0.966       .  S
O434      Zr1973   2.376   1_455  S
O434      Zr2234   2.376   1_455  S
O436      Zr1956   2.367   1_455  S
O436      Zr1976   2.367   1_455  S
O436        H440   0.966       .  S
O437      Zr1953   2.368   1_455  S
O437      Zr1973   2.366   1_455  S
O437        H442   0.966       .  S
H443       O1958   0.990       .  S
H445       O1977   0.990   1_455  S
H448       O1955   0.990   1_455  S
H449       O1954   0.990   1_455  S
O455       Zr467   2.446       .  S
O455        C457   1.288       .  A
O456       Zr493   2.426       .  S
O456        C457   1.287       .  A
O458      Zr1244   2.440   1_545  S
O458        C460   1.287       .  A
O459        C460   1.285       .  A
O461       Zr470   2.443       .  S
O461        C463   1.288       .  A
O462        C463   1.286       .  A
O464      Zr1241   2.448   1_545  S
O464        C466   1.289       .  A
O465       Zr494   2.424       .  S
O465        C466   1.286       .  A
Zr467      O1238   2.448       .  S
Zr467       O468   2.434       .  S
Zr467      O1243   2.430       .  S
Zr467       O473   2.376       .  S
Zr467      O1248   2.370       .  S
Zr467      O1271   2.369       .  S
Zr467       O499   2.370       .  S
O468        H511   0.990       .  S
O469      Zr1241   2.430       .  S
O469       H1284   0.990       .  S
O469       H1288   0.990       .  S
Zr470      O1232   2.440       .  S
Zr470       O471   2.435       .  S
Zr470      O1246   2.428       .  S
Zr470       O990   2.373       .  S
Zr470       O498   2.367       .  S
Zr470      O1274   2.372       .  S
O471       H1286   0.990       .  S
O471        H515   0.990       .  S
O472      Zr1244   2.428       .  S
O472       H1279   0.990   1_565  S
O473       Zr728   2.373       .  S
O473       Zr493   2.384       .  S
O474      Zr1241   2.370   1_545  S
O474      Zr1502   2.373   1_545  S
O474       Zr494   2.382       .  S
O474        H501   0.966       .  S
O475      Zr1261   2.445   1_545  S
O475        C477   1.288       .  A
O476       Zr494   2.419       .  S
O476        C477   1.285       .  A
O478       Zr490   2.439       .  S
O478        C480   1.287       .  A
O479        C480   1.287       .  A
O481      Zr1264   2.442   1_545  S
O481        C483   1.287       .  A
O482        C483   1.285       .  A
O484       Zr487   2.441       .  S
O484        C486   1.287       .  A
O485       Zr493   2.432       .  S
O485        C486   1.288       .  A
Zr487      O1249   2.445       .  S
Zr487       O488   2.435       .  S
Zr487       O489   2.427       .  S
Zr487      O1269   2.371       .  S
Zr487       O496   2.374       .  S
Zr487       O499   2.366       .  S
Zr487      O1271   2.369       .  S
O488       H1282   0.990       .  S
O488        H513   0.990       .  S
O489       H1283   0.990       .  S
Zr490      O1255   2.442       .  S
Zr490       O491   2.435       .  S
Zr490       O492   2.429       .  S
Zr490      O1011   2.370       .  S
Zr490      O1274   2.371       .  S
Zr490       O498   2.367       .  S
O491        H507   0.990       .  S
O492       H1280   0.990       .  S
O492        H516   0.990       .  S
Zr493       O720   2.427       .  S
Zr493       O737   2.430       .  S
Zr493       O496   2.380       .  S
Zr493       O756   2.384       .  S
Zr493       O499   2.384       .  S
Zr494       O717   2.418       .  S
Zr494       O740   2.419       .  S
Zr494       O495   2.383       .  S
Zr494       O497   2.379       .  S
Zr494       O758   2.382       .  S
O495      Zr1261   2.371   1_545  S
O495      Zr1522   2.370   1_545  S
O495        H503   0.966       .  S
O496       Zr748   2.373       .  S
O497      Zr1241   2.369   1_545  S
O497      Zr1261   2.369   1_545  S
O498        H502   0.966       .  S
O499        H504   0.966       .  S
O500      Zr1244   2.372   1_545  S
O500      Zr1264   2.371   1_545  S
H505       O1246   0.990       .  S
H506       O1266   0.990   1_545  S
H508       O1262   0.990   1_545  S
H509       O1263   0.990       .  S
H510       O1243   0.990       .  S
H512       O1245   0.990   1_545  S
H514       O1243   0.990       .  S
C517        N518   1.358       .  A
C517        N522   1.360       .  A
C517        C591   1.467       .  S
N518        C519   1.358       .  A
C519        N520   1.359       .  A
C519        C721   1.465       .  S
N520        C521   1.359       .  A
C521        N522   1.360       .  A
C521        C527   1.474       .  S
C523        N524   1.357       .  A
C523        N528   1.359       .  A
C523        C597   1.464       .  S
N524        C525   1.357       .  A
C525        N526   1.359       .  A
C525        C715   1.465       .  S
N526        C527   1.360       .  A
C527        N528   1.359       .  A
C529        N530   1.360       .  A
C529        N534   1.358       .  A
C529        C744   1.467       .  S
N530        C531   1.360       .  A
C531        N532   1.360       .  A
C531        C537   1.475       .  S
N532        C533   1.360       .  A
C533        N534   1.358       .  A
C533        C653   1.466       .  S
C535        N536   1.360       .  A
C535        N540   1.358       .  A
C535        C738   1.466       .  S
N536        C537   1.360       .  A
C537        N538   1.360       .  A
N538        C539   1.359       .  A
C539        N540   1.358       .  A
C539        C659   1.467       .  S
C541        N542   1.360       .  A
C541        N546   1.358       .  A
C541        C676   1.467       .  S
N542        C543   1.360       .  A
C543        N544   1.359       .  A
C543        C551   1.475       .  S
N544        C545   1.359       .  A
C545        N546   1.358       .  A
C545        C620   1.464       .  S
C547        N548   1.358       .  A
C547        N552   1.359       .  A
C547        C682   1.465       .  S
N548        C549   1.358       .  A
C549        N550   1.360       .  A
C549        C614   1.468       .  S
N550        C551   1.361       .  A
C551        N552   1.359       .  A
C553        N554   1.357       .  A
C553        N558   1.359       .  A
C553        C673   1.464       .  S
N554        C555   1.358       .  A
C555        N556   1.359       .  A
C555        C563   1.467       .  S
N556        C557   1.358       .  A
C557        N558   1.359       .  A
C557        C724   1.467       .  S
C559        N560   1.358       .  A
C559        N564   1.358       .  A
C559        C679   1.463       .  S
N560        C561   1.358       .  A
C561        N562   1.356       .  A
C561        C718   1.461       .  S
N562        C563   1.357       .  A
C563        N564   1.358       .  A
C565        N566   1.359       .  A
C565        N570   1.357       .  A
C565        C600   1.464       .  S
N566        C567   1.358       .  A
C567        N568   1.357       .  A
C567        C656   1.464       .  S
N568        C569   1.358       .  A
C569        N570   1.358       .  A
C569        C575   1.467       .  S
C571        N572   1.358       .  A
C571        N576   1.357       .  A
C571        C594   1.463       .  S
N572        C573   1.358       .  A
C573        N574   1.357       .  A
C573        C662   1.463       .  S
N574        C575   1.358       .  A
C575        N576   1.358       .  A
C577        N578   1.359       .  A
C577        N582   1.357       .  A
C577        C735   1.464       .  S
N578        C579   1.359       .  A
C579        N580   1.358       .  A
C579        C617   1.467       .  S
N580        C581   1.359       .  A
C581        N582   1.358       .  A
C581        C587   1.468       .  S
C583        N584   1.358       .  A
C583        N588   1.357       .  A
C583        C741   1.462       .  S
N584        C585   1.358       .  A
C585        N586   1.357       .  A
C585        C611   1.464       .  S
N586        C587   1.358       .  A
C587        N588   1.358       .  A
O589       Zr601   2.443       .  S
O589        C591   1.287       .  A
O590        C591   1.287       .  A
O592       Zr604   2.443       .  S
O592        C594   1.288       .  A
O593       Zr628   2.419       .  S
O593        C594   1.285       .  A
O595       Zr604   2.443       .  S
O595        C597   1.288       .  A
O596       Zr627   2.425       .  S
O596        C597   1.286       .  A
O598       Zr601   2.442       .  S
O598        C600   1.288       .  A
O599        C600   1.285       .  A
Zr601       O602   2.435       .  S
Zr601       O603   2.431       .  S
Zr601       O631   2.372       .  S
Zr601       O633   2.368       .  S
O602        H645   0.990       .  S
O603        H644   0.990       .  S
O603        H648   0.990       .  S
Zr604       O605   2.438       .  S
Zr604       O606   2.429       .  S
Zr604       O608   2.372       .  S
Zr604       O607   2.374       .  S
Zr604       O632   2.368       .  S
Zr604       O634   2.370       .  S
O605        H646   0.990       .  S
O605        H649   0.990       .  S
O606        H639   0.990       .  S
O607       Zr627   2.381       .  S
O608       Zr628   2.383       .  S
O608        H635   0.966       .  S
O609       Zr621   2.444       .  S
O609        C611   1.288       .  A
O610        C611   1.285       .  A
O612       Zr624   2.447       .  S
O612        C614   1.288       .  A
O613       Zr627   2.427       .  S
O613        C614   1.287       .  A
O615       Zr624   2.447       .  S
O615        C617   1.288       .  A
O616       Zr628   2.425       .  S
O616        C617   1.286       .  A
O618       Zr621   2.442       .  S
O618        C620   1.287       .  A
O619        C620   1.286       .  A
Zr621       O622   2.437       .  S
Zr621       O623   2.429       .  S
Zr621       O633   2.368       .  S
Zr621       O631   2.371       .  S
O622        H642   0.990       .  S
O622        H647   0.990       .  S
O623        H643   0.990       .  S
Zr624       O625   2.433       .  S
Zr624       O626   2.430       .  S
Zr624       O630   2.375       .  S
Zr624       O629   2.371       .  S
Zr624       O634   2.371       .  S
Zr624       O632   2.369       .  S
O625        H641   0.990       .  S
O626        H640   0.990       .  S
O626        H650   0.990       .  S
Zr627       O630   2.383       .  S
Zr627       O632   2.385       .  S
Zr628       O629   2.383       .  S
Zr628       O634   2.380       .  S
O629        H637   0.966       .  S
O632        H636   0.966       .  S
O633        H638   0.966       .  S
O651      Zr2211   2.445   1_455  S
O651        C653   1.287       .  A
O652       Zr689   2.428       .  S
O652        C653   1.287       .  A
O654       Zr666   2.444       .  S
O654        C656   1.288       .  A
O655        C656   1.285       .  A
O657      Zr2214   2.446   1_455  S
O657        C659   1.288       .  A
O658        C659   1.287       .  A
O660       Zr663   2.443       .  S
O660        C662   1.288       .  A
O661       Zr690   2.420       .  S
O661        C662   1.285       .  A
Zr663      O2199   2.445       .  S
Zr663       O664   2.434       .  S
Zr663       O665   2.431       .  S
Zr663      O2217   2.375       .  S
Zr663       O670   2.371       .  S
Zr663       O693   2.371       .  S
Zr663      O2243   2.368       .  S
O664       H2255   0.990       .  S
O665       H2254   0.990       .  S
O665        H710   0.990       .  S
Zr666      O2205   2.446       .  S
Zr666       O667   2.435       .  S
Zr666       O668   2.428       .  S
Zr666      O1959   2.374       .  S
Zr666      O2242   2.367       .  S
Zr666       O696   2.371       .  S
O667        H708   0.990       .  S
O667        H711   0.990       .  S
O668       H2249   0.990       .  S
O669      Zr2211   2.375   1_455  S
O669      Zr1698   2.374   1_456  S
O669       Zr689   2.383       .  S
O670       Zr690   2.382       .  S
O670        H697   0.966       .  S
O671       Zr683   2.444       .  S
O671        C673   1.288       .  A
O672       Zr690   2.421       .  S
O672        C673   1.285       .  A
O674      Zr2234   2.445   1_455  S
O674        C676   1.288       .  A
O675        C676   1.287       .  A
O677       Zr686   2.446       .  S
O677        C679   1.288       .  A
O678        C679   1.285       .  A
O680      Zr2231   2.444   1_455  S
O680        C682   1.288       .  A
O681       Zr689   2.425       .  S
O681        C682   1.286       .  A
Zr683      O2228   2.444       .  S
Zr683       O684   2.436       .  S
Zr683       O685   2.426       .  S
Zr683       O691   2.372       .  S
Zr683      O2240   2.376       .  S
Zr683      O2243   2.366       .  S
Zr683       O693   2.370       .  S
O684        H704   0.990       .  S
O684        H709   0.990       .  S
O685        H705   0.990       .  S
Zr686      O2222   2.445       .  S
Zr686       O687   2.433       .  S
Zr686       O688   2.431       .  S
Zr686      O1982   2.376       .  S
Zr686       O696   2.370       .  S
Zr686      O2242   2.367       .  S
O687       H2251   0.990       .  S
O688        H702   0.990       .  S
O688        H712   0.990       .  S
Zr689       O692   2.383       .  S
Zr689       O695   2.384       .  S
Zr690       O691   2.383       .  S
Zr690       O693   2.380       .  S
O691        H699   0.966       .  S
O692      Zr2231   2.376   1_455  S
O692      Zr1718   2.376   1_456  S
O694      Zr2214   2.367   1_455  S
O694      Zr2234   2.367   1_455  S
O694        H698   0.966       .  S
O695      Zr2211   2.368   1_455  S
O695      Zr2231   2.366   1_455  S
O695        H700   0.966       .  S
H701       O2216   0.990       .  S
H703       O2235   0.990   1_455  S
H706       O2213   0.990   1_455  S
H707       O2212   0.990   1_455  S
O713       Zr725   2.446       .  S
O713        C715   1.288       .  A
O714       Zr751   2.426       .  S
O714        C715   1.287       .  A
O716      Zr1502   2.440   1_545  S
O716        C718   1.287       .  A
O717        C718   1.284       .  A
O719       Zr728   2.443       .  S
O719        C721   1.288       .  A
O720        C721   1.286       .  A
O722      Zr1499   2.448   1_545  S
O722        C724   1.289       .  A
O723       Zr752   2.424       .  S
O723        C724   1.286       .  A
Zr725      O1496   2.448       .  S
Zr725       O726   2.434       .  S
Zr725      O1501   2.430       .  S
Zr725       O731   2.376       .  S
Zr725      O1506   2.370       .  S
Zr725      O1529   2.369       .  S
Zr725       O757   2.370       .  S
O726        H769   0.990       .  S
O727      Zr1499   2.430       .  S
O727       H1542   0.990       .  S
O727       H1546   0.990       .  S
Zr728      O1490   2.440       .  S
Zr728       O729   2.435       .  S
Zr728      O1504   2.428       .  S
Zr728      O1248   2.373       .  S
Zr728       O756   2.367       .  S
Zr728      O1532   2.372       .  S
O729       H1544   0.990       .  S
O729        H773   0.990       .  S
O730      Zr1502   2.428       .  S
O730       H1537   0.990   1_565  S
O731       Zr751   2.384       .  S
O732      Zr1499   2.370   1_545  S
O732       Zr986   2.373   1_546  S
O732       Zr752   2.382       .  S
O732        H759   0.966       .  S
O733      Zr1519   2.445   1_545  S
O733        C735   1.288       .  A
O734       Zr752   2.420       .  S
O734        C735   1.285       .  A
O736       Zr748   2.439       .  S
O736        C738   1.287       .  A
O737        C738   1.287       .  A
O739      Zr1522   2.442   1_545  S
O739        C741   1.287       .  A
O740        C741   1.285       .  A
O742       Zr745   2.441       .  S
O742        C744   1.287       .  A
O743       Zr751   2.432       .  S
O743        C744   1.288       .  A
Zr745      O1507   2.445       .  S
Zr745       O746   2.435       .  S
Zr745       O747   2.427       .  S
Zr745      O1527   2.371       .  S
Zr745       O754   2.374       .  S
Zr745       O757   2.366       .  S
Zr745      O1529   2.369       .  S
O746       H1540   0.990       .  S
O746        H771   0.990       .  S
O747       H1541   0.990       .  S
Zr748      O1513   2.442       .  S
Zr748       O749   2.435       .  S
Zr748       O750   2.429       .  S
Zr748      O1269   2.370       .  S
Zr748      O1532   2.371       .  S
Zr748       O756   2.367       .  S
O749        H765   0.990       .  S
O750       H1538   0.990       .  S
O750        H774   0.990       .  S
Zr751       O754   2.380       .  S
Zr751       O757   2.384       .  S
Zr752       O753   2.383       .  S
Zr752       O755   2.379       .  S
O753      Zr1519   2.371   1_545  S
O753      Zr1006   2.370   1_546  S
O753        H761   0.966       .  S
O755      Zr1499   2.369   1_545  S
O755      Zr1519   2.369   1_545  S
O756        H760   0.966       .  S
O757        H762   0.966       .  S
O758      Zr1502   2.372   1_545  S
O758      Zr1522   2.371   1_545  S
H763       O1504   0.990       .  S
H764       O1524   0.990   1_545  S
H766       O1520   0.990   1_545  S
H767       O1521   0.990       .  S
H768       O1501   0.990       .  S
H770       O1503   0.990   1_545  S
H772       O1501   0.990       .  S
C775        N776   1.358       .  A
C775        N780   1.360       .  A
C775        C849   1.467       .  S
N776        C777   1.358       .  A
C777        N778   1.359       .  A
C777        C979   1.465       .  S
N778        C779   1.359       .  A
C779        N780   1.360       .  A
C779        C785   1.474       .  S
C781        N782   1.357       .  A
C781        N786   1.359       .  A
C781        C855   1.464       .  S
N782        C783   1.357       .  A
C783        N784   1.359       .  A
C783        C973   1.465       .  S
N784        C785   1.360       .  A
C785        N786   1.359       .  A
C787        N788   1.360       .  A
C787        N792   1.358       .  A
C787       C1002   1.467       .  S
N788        C789   1.360       .  A
C789        N790   1.360       .  A
C789        C795   1.475       .  S
N790        C791   1.360       .  A
C791        N792   1.358       .  A
C791        C911   1.466       .  S
C793        N794   1.360       .  A
C793        N798   1.358       .  A
C793        C996   1.465       .  S
N794        C795   1.360       .  A
C795        N796   1.360       .  A
N796        C797   1.359       .  A
C797        N798   1.358       .  A
C797        C917   1.467       .  S
C799        N800   1.360       .  A
C799        N804   1.358       .  A
C799        C934   1.467       .  S
N800        C801   1.360       .  A
C801        N802   1.359       .  A
C801        C809   1.475       .  S
N802        C803   1.359       .  A
C803        N804   1.358       .  A
C803        C878   1.464       .  S
C805        N806   1.358       .  A
C805        N810   1.359       .  A
C805        C940   1.465       .  S
N806        C807   1.358       .  A
C807        N808   1.360       .  A
C807        C872   1.468       .  S
N808        C809   1.361       .  A
C809        N810   1.359       .  A
C811        N812   1.357       .  A
C811        N816   1.359       .  A
C811        C931   1.464       .  S
N812        C813   1.358       .  A
C813        N814   1.359       .  A
C813        C821   1.467       .  S
N814        C815   1.358       .  A
C815        N816   1.359       .  A
C815        C982   1.467       .  S
C817        N818   1.358       .  A
C817        N822   1.358       .  A
C817        C937   1.463       .  S
N818        C819   1.358       .  A
C819        N820   1.356       .  A
C819        C976   1.461       .  S
N820        C821   1.357       .  A
C821        N822   1.358       .  A
C823        N824   1.359       .  A
C823        N828   1.357       .  A
C823        C858   1.464       .  S
N824        C825   1.358       .  A
C825        N826   1.357       .  A
C825        C914   1.464       .  S
N826        C827   1.358       .  A
C827        N828   1.358       .  A
C827        C833   1.467       .  S
C829        N830   1.358       .  A
C829        N834   1.357       .  A
C829        C852   1.463       .  S
N830        C831   1.358       .  A
C831        N832   1.357       .  A
C831        C920   1.463       .  S
N832        C833   1.358       .  A
C833        N834   1.358       .  A
C835        N836   1.359       .  A
C835        N840   1.357       .  A
C835        C993   1.464       .  S
N836        C837   1.359       .  A
C837        N838   1.358       .  A
C837        C875   1.467       .  S
N838        C839   1.359       .  A
C839        N840   1.358       .  A
C839        C845   1.468       .  S
C841        N842   1.358       .  A
C841        N846   1.357       .  A
C841        C999   1.462       .  S
N842        C843   1.358       .  A
C843        N844   1.357       .  A
C843        C869   1.464       .  S
N844        C845   1.358       .  A
C845        N846   1.358       .  A
O847       Zr859   2.443       .  S
O847        C849   1.287       .  A
O848      Zr1401   2.432   1_554  S
O848        C849   1.287       .  A
O850       Zr862   2.443       .  S
O850        C852   1.288       .  A
O851       Zr886   2.419       .  S
O851        C852   1.285       .  A
O853       Zr862   2.443       .  S
O853        C855   1.288       .  A
O854       Zr885   2.425       .  S
O854        C855   1.286       .  A
O856       Zr859   2.442       .  S
O856        C858   1.288       .  A
O857      Zr1402   2.424   1_554  S
O857        C858   1.285       .  A
Zr859       O860   2.435       .  S
Zr859       O861   2.431       .  S
Zr859      O1381   2.374   1_554  S
Zr859      O1382   2.370   1_554  S
Zr859       O889   2.372       .  S
Zr859       O891   2.368       .  S
O860        H903   0.990       .  S
O861        H902   0.990       .  S
O861        H906   0.990       .  S
Zr862       O863   2.438       .  S
Zr862       O864   2.429       .  S
Zr862       O866   2.372       .  S
Zr862       O865   2.374       .  S
Zr862       O890   2.368       .  S
Zr862       O892   2.370       .  S
O863        H904   0.990       .  S
O863        H907   0.990       .  S
O864        H897   0.990       .  S
O865      Zr1117   2.374       .  S
O865       Zr885   2.381       .  S
O866      Zr1117   2.370       .  S
O866       Zr886   2.383       .  S
O866        H893   0.966       .  S
O867       Zr879   2.444       .  S
O867        C869   1.288       .  A
O868      Zr1402   2.422   1_554  S
O868        C869   1.285       .  A
O870       Zr882   2.447       .  S
O870        C872   1.288       .  A
O871       Zr885   2.427       .  S
O871        C872   1.287       .  A
O873       Zr882   2.447       .  S
O873        C875   1.288       .  A
O874       Zr886   2.425       .  S
O874        C875   1.286       .  A
O876       Zr879   2.442       .  S
O876        C878   1.287       .  A
O877      Zr1401   2.424   1_554  S
O877        C878   1.286       .  A
Zr879       O880   2.437       .  S
Zr879       O881   2.429       .  S
Zr879      O1403   2.373   1_554  S
Zr879      O1404   2.375   1_554  S
Zr879       O891   2.368       .  S
Zr879       O889   2.371       .  S
O880        H900   0.990       .  S
O880        H905   0.990       .  S
O881        H901   0.990       .  S
Zr882       O883   2.433       .  S
Zr882       O884   2.430       .  S
Zr882       O888   2.375       .  S
Zr882       O887   2.371       .  S
Zr882       O892   2.371       .  S
Zr882       O890   2.369       .  S
O883        H899   0.990       .  S
O884        H898   0.990       .  S
O884        H908   0.990       .  S
Zr885      O1106   2.432       .  S
Zr885      O1135   2.424       .  S
Zr885       O888   2.383       .  S
Zr885       O890   2.385       .  S
Zr885      O1149   2.383       .  S
Zr886      O1115   2.424       .  S
Zr886      O1126   2.422       .  S
Zr886       O887   2.383       .  S
Zr886      O1147   2.382       .  S
Zr886       O892   2.380       .  S
O887      Zr1137   2.373       .  S
O887        H895   0.966       .  S
O888      Zr1137   2.375       .  S
O889      Zr1402   2.382   1_554  S
O890        H894   0.966       .  S
O891      Zr1401   2.383   1_554  S
O891        H896   0.966       .  S
O909      Zr2469   2.445   1_455  S
O909        C911   1.287       .  A
O910       Zr947   2.428       .  S
O910        C911   1.287       .  A
O912       Zr924   2.444       .  S
O912        C914   1.288       .  A
O913      Zr1464   2.421   1_554  S
O913        C914   1.285       .  A
O915      Zr2472   2.446   1_455  S
O915        C917   1.288       .  A
O916      Zr1463   2.427   1_554  S
O916        C917   1.287       .  A
O918       Zr921   2.443       .  S
O918        C920   1.288       .  A
O919       Zr948   2.420       .  S
O919        C920   1.285       .  A
Zr921      O2457   2.445       .  S
Zr921       O922   2.434       .  S
Zr921       O923   2.431       .  S
Zr921      O2475   2.375       .  S
Zr921       O928   2.371       .  S
Zr921       O951   2.371       .  S
Zr921      O2501   2.368       .  S
O922       H2513   0.990       .  S
O923       H2512   0.990       .  S
O923        H968   0.990       .  S
Zr924      O2463   2.446       .  S
Zr924       O925   2.435       .  S
Zr924       O926   2.428       .  S
Zr924      O1444   2.373   1_554  S
Zr924      O2991   2.374   1_554  S
Zr924      O2500   2.367       .  S
Zr924       O954   2.371       .  S
O925        H966   0.990       .  S
O925        H969   0.990       .  S
O926       H2507   0.990       .  S
O927      Zr2469   2.375   1_455  S
O927      Zr2730   2.374   1_455  S
O927       Zr947   2.383       .  S
O928      Zr1182   2.373       .  S
O928       Zr948   2.382       .  S
O928        H955   0.966       .  S
O929       Zr941   2.444       .  S
O929        C931   1.288       .  A
O930       Zr948   2.421       .  S
O930        C931   1.285       .  A
O932      Zr2492   2.445   1_455  S
O932        C934   1.288       .  A
O933      Zr1463   2.429   1_554  S
O933        C934   1.287       .  A
O935       Zr944   2.445       .  S
O935        C937   1.288       .  A
O936      Zr1464   2.419   1_554  S
O936        C937   1.285       .  A
O938      Zr2489   2.444   1_455  S
O938        C940   1.288       .  A
O939       Zr947   2.425       .  S
O939        C940   1.286       .  A
Zr941      O2486   2.444       .  S
Zr941       O942   2.436       .  S
Zr941       O943   2.426       .  S
Zr941       O949   2.372       .  S
Zr941      O2498   2.376       .  S
Zr941      O2501   2.366       .  S
Zr941       O951   2.370       .  S
O942        H962   0.990       .  S
O942        H967   0.990       .  S
O943        H963   0.990       .  S
Zr944      O2480   2.445       .  S
Zr944       O945   2.433       .  S
Zr944       O946   2.431       .  S
Zr944      O3014   2.376   1_554  S
Zr944      O1465   2.370   1_554  S
Zr944       O954   2.370       .  S
Zr944      O2500   2.367       .  S
O945       H2509   0.990       .  S
O946        H960   0.990       .  S
O946        H970   0.990       .  S
Zr947      O1174   2.427       .  S
Zr947      O1191   2.429       .  S
Zr947       O950   2.383       .  S
Zr947      O1210   2.385       .  S
Zr947       O953   2.384       .  S
Zr948      O1171   2.422       .  S
Zr948      O1194   2.419       .  S
Zr948       O949   2.383       .  S
Zr948       O951   2.380       .  S
Zr948      O1212   2.381       .  S
O949      Zr1202   2.370       .  S
O949        H957   0.966       .  S
O950      Zr2489   2.376   1_455  S
O950      Zr2750   2.376   1_455  S
O952      Zr2472   2.367   1_455  S
O952      Zr2492   2.367   1_455  S
O952      Zr1463   2.385   1_554  S
O952        H956   0.966       .  S
O953      Zr2469   2.368   1_455  S
O953      Zr2489   2.366   1_455  S
O953        H958   0.966       .  S
O954      Zr1464   2.381   1_554  S
H959       O2474   0.990       .  S
H961       O2493   0.990   1_455  S
H964       O2471   0.990   1_455  S
H965       O2470   0.990   1_455  S
O971       Zr983   2.446       .  S
O971        C973   1.288       .  A
O972      Zr1009   2.426       .  S
O972        C973   1.287       .  A
O974        C976   1.287       .  A
O975      Zr1526   2.418   1_554  S
O975        C976   1.285       .  A
O977       Zr986   2.443       .  S
O977        C979   1.288       .  A
O978      Zr1525   2.427   1_554  S
O978        C979   1.286       .  A
O980        C982   1.289       .  A
O981      Zr1010   2.424       .  S
O981        C982   1.286       .  A
Zr983       O984   2.434       .  S
Zr983       O989   2.377       .  S
Zr983      O1015   2.370       .  S
O984       H1027   0.990       .  S
Zr986       O987   2.435       .  S
Zr986      O1505   2.373   1_554  S
Zr986      O1014   2.367       .  S
O987       H1031   0.990       .  S
O989      Zr1244   2.373       .  S
O989      Zr1009   2.384       .  S
O990      Zr1010   2.382       .  S
O990       H1017   0.966       .  S
O991        C993   1.288       .  A
O992      Zr1010   2.420       .  S
O992        C993   1.285       .  A
O994      Zr1006   2.439       .  S
O994        C996   1.287       .  A
O995      Zr1525   2.430   1_554  S
O995        C996   1.287       .  A
O997        C999   1.287       .  A
O998      Zr1526   2.419   1_554  S
O998        C999   1.285       .  A
O1000     Zr1003   2.441       .  S
O1000      C1002   1.287       .  A
O1001     Zr1009   2.432       .  S
O1001      C1002   1.288       .  A
Zr1003     O1004   2.435       .  S
Zr1003     O1005   2.427       .  S
Zr1003     O1012   2.374       .  S
Zr1003     O1015   2.366       .  S
O1004      H1029   0.990       .  S
Zr1006     O1007   2.435       .  S
Zr1006     O1008   2.429       .  S
Zr1006     O1528   2.374   1_554  S
Zr1006     O1014   2.367       .  S
O1007      H1023   0.990       .  S
O1008      H1032   0.990   1_565  S
Zr1009     O1236   2.427       .  S
Zr1009     O1253   2.430       .  S
Zr1009     O1012   2.380       .  S
Zr1009     O1272   2.384       .  S
Zr1009     O1015   2.384       .  S
Zr1010     O1233   2.418       .  S
Zr1010     O1256   2.419       .  S
Zr1010     O1011   2.383       .  S
Zr1010     O1013   2.379       .  S
Zr1010     O1274   2.382       .  S
O1011      H1019   0.966       .  S
O1012     Zr1264   2.374       .  S
O1014     Zr1525   2.384   1_554  S
O1014      H1018   0.966       .  S
O1015      H1020   0.966       .  S
O1016     Zr1526   2.382   1_554  S
C1033      N1034   1.358       .  A
C1033      N1038   1.360       .  A
C1033      C1107   1.467       .  S
N1034      C1035   1.358       .  A
C1035      N1036   1.359       .  A
C1035      C1237   1.465       .  S
N1036      C1037   1.359       .  A
C1037      N1038   1.360       .  A
C1037      C1043   1.474       .  S
C1039      N1040   1.357       .  A
C1039      N1044   1.359       .  A
C1039      C1113   1.464       .  S
N1040      C1041   1.357       .  A
C1041      N1042   1.359       .  A
C1041      C1231   1.465       .  S
N1042      C1043   1.360       .  A
C1043      N1044   1.359       .  A
C1045      N1046   1.360       .  A
C1045      N1050   1.358       .  A
C1045      C1260   1.467       .  S
N1046      C1047   1.360       .  A
C1047      N1048   1.360       .  A
C1047      C1053   1.475       .  S
N1048      C1049   1.360       .  A
C1049      N1050   1.358       .  A
C1049      C1169   1.466       .  S
C1051      N1052   1.360       .  A
C1051      N1056   1.358       .  A
C1051      C1254   1.465       .  S
N1052      C1053   1.360       .  A
C1053      N1054   1.360       .  A
N1054      C1055   1.359       .  A
C1055      N1056   1.358       .  A
C1055      C1175   1.467       .  S
C1057      N1058   1.360       .  A
C1057      N1062   1.358       .  A
C1057      C1192   1.467       .  S
N1058      C1059   1.360       .  A
C1059      N1060   1.359       .  A
C1059      C1067   1.475       .  S
N1060      C1061   1.359       .  A
C1061      N1062   1.358       .  A
C1061      C1136   1.464       .  S
C1063      N1064   1.358       .  A
C1063      N1068   1.359       .  A
C1063      C1198   1.465       .  S
N1064      C1065   1.358       .  A
C1065      N1066   1.360       .  A
C1065      C1130   1.468       .  S
N1066      C1067   1.361       .  A
C1067      N1068   1.359       .  A
C1069      N1070   1.357       .  A
C1069      N1074   1.359       .  A
C1069      C1189   1.464       .  S
N1070      C1071   1.358       .  A
C1071      N1072   1.359       .  A
C1071      C1079   1.467       .  S
N1072      C1073   1.358       .  A
C1073      N1074   1.359       .  A
C1073      C1240   1.467       .  S
C1075      N1076   1.358       .  A
C1075      N1080   1.358       .  A
C1075      C1195   1.463       .  S
N1076      C1077   1.358       .  A
C1077      N1078   1.356       .  A
C1077      C1234   1.461       .  S
N1078      C1079   1.357       .  A
C1079      N1080   1.358       .  A
C1081      N1082   1.359       .  A
C1081      N1086   1.357       .  A
C1081      C1116   1.464       .  S
N1082      C1083   1.358       .  A
C1083      N1084   1.357       .  A
C1083      C1172   1.464       .  S
N1084      C1085   1.358       .  A
C1085      N1086   1.358       .  A
C1085      C1091   1.467       .  S
C1087      N1088   1.358       .  A
C1087      N1092   1.357       .  A
C1087      C1110   1.463       .  S
N1088      C1089   1.358       .  A
C1089      N1090   1.357       .  A
C1089      C1178   1.463       .  S
N1090      C1091   1.358       .  A
C1091      N1092   1.358       .  A
C1093      N1094   1.359       .  A
C1093      N1098   1.357       .  A
C1093      C1251   1.464       .  S
N1094      C1095   1.359       .  A
C1095      N1096   1.358       .  A
C1095      C1133   1.467       .  S
N1096      C1097   1.359       .  A
C1097      N1098   1.358       .  A
C1097      C1103   1.468       .  S
C1099      N1100   1.358       .  A
C1099      N1104   1.357       .  A
C1099      C1257   1.462       .  S
N1100      C1101   1.358       .  A
C1101      N1102   1.357       .  A
C1101      C1127   1.464       .  S
N1102      C1103   1.358       .  A
C1103      N1104   1.358       .  A
O1105     Zr1117   2.443       .  S
O1105      C1107   1.287       .  A
O1106      C1107   1.287       .  A
O1108     Zr1120   2.443       .  S
O1108      C1110   1.288       .  A
O1109     Zr1144   2.419       .  S
O1109      C1110   1.285       .  A
O1111     Zr1120   2.443       .  S
O1111      C1113   1.288       .  A
O1112     Zr1143   2.425       .  S
O1112      C1113   1.286       .  A
O1114     Zr1117   2.442       .  S
O1114      C1116   1.288       .  A
O1115      C1116   1.285       .  A
Zr1117     O1118   2.435       .  S
Zr1117     O1119   2.431       .  S
Zr1117     O1147   2.372       .  S
Zr1117     O1149   2.368       .  S
O1118      H1161   0.990       .  S
O1119      H1160   0.990       .  S
O1119      H1164   0.990       .  S
Zr1120     O1121   2.438       .  S
Zr1120     O1122   2.429       .  S
Zr1120     O1124   2.372       .  S
Zr1120     O1123   2.374       .  S
Zr1120     O1148   2.368       .  S
Zr1120     O1150   2.370       .  S
O1121      H1162   0.990       .  S
O1121      H1165   0.990       .  S
O1122      H1155   0.990       .  S
O1123     Zr1375   2.374       .  S
O1123     Zr1143   2.381       .  S
O1124     Zr1375   2.370       .  S
O1124     Zr1144   2.383       .  S
O1124      H1151   0.966       .  S
O1125     Zr1137   2.444       .  S
O1125      C1127   1.288       .  A
O1126      C1127   1.285       .  A
O1128     Zr1140   2.447       .  S
O1128      C1130   1.288       .  A
O1129     Zr1143   2.427       .  S
O1129      C1130   1.287       .  A
O1131     Zr1140   2.447       .  S
O1131      C1133   1.288       .  A
O1132     Zr1144   2.425       .  S
O1132      C1133   1.286       .  A
O1134     Zr1137   2.442       .  S
O1134      C1136   1.287       .  A
O1135      C1136   1.286       .  A
Zr1137     O1138   2.437       .  S
Zr1137     O1139   2.429       .  S
Zr1137     O1149   2.368       .  S
Zr1137     O1147   2.371       .  S
O1138      H1158   0.990       .  S
O1138      H1163   0.990       .  S
O1139      H1159   0.990       .  S
Zr1140     O1141   2.433       .  S
Zr1140     O1142   2.430       .  S
Zr1140     O1146   2.375       .  S
Zr1140     O1145   2.371       .  S
Zr1140     O1150   2.371       .  S
Zr1140     O1148   2.369       .  S
O1141      H1157   0.990       .  S
O1142      H1156   0.990       .  S
O1142      H1166   0.990       .  S
Zr1143     O1364   2.432       .  S
Zr1143     O1393   2.424       .  S
Zr1143     O1146   2.383       .  S
Zr1143     O1148   2.385       .  S
Zr1143     O1407   2.383       .  S
Zr1144     O1373   2.424       .  S
Zr1144     O1384   2.422       .  S
Zr1144     O1145   2.383       .  S
Zr1144     O1405   2.382       .  S
Zr1144     O1150   2.380       .  S
O1145     Zr1395   2.373       .  S
O1145      H1153   0.966       .  S
O1146     Zr1395   2.375       .  S
O1148      H1152   0.966       .  S
O1149      H1154   0.966       .  S
O1167     Zr2727   2.445   1_455  S
O1167      C1169   1.287       .  A
O1168     Zr1205   2.428       .  S
O1168      C1169   1.287       .  A
O1170     Zr1182   2.444       .  S
O1170      C1172   1.288       .  A
O1171      C1172   1.285       .  A
O1173     Zr2730   2.446   1_455  S
O1173      C1175   1.288       .  A
O1174      C1175   1.287       .  A
O1176     Zr1179   2.443       .  S
O1176      C1178   1.288       .  A
O1177     Zr1206   2.420       .  S
O1177      C1178   1.285       .  A
Zr1179     O2715   2.445       .  S
Zr1179     O1180   2.434       .  S
Zr1179     O1181   2.431       .  S
Zr1179     O2733   2.375       .  S
Zr1179     O1186   2.371       .  S
Zr1179     O1209   2.371       .  S
Zr1179     O2759   2.368       .  S
O1180      H2771   0.990       .  S
O1181      H2770   0.990       .  S
O1181      H1226   0.990       .  S
Zr1182     O2721   2.446       .  S
Zr1182     O1183   2.435       .  S
Zr1182     O1184   2.428       .  S
Zr1182     O2475   2.374       .  S
Zr1182     O2758   2.367       .  S
Zr1182     O1212   2.371       .  S
O1183      H1224   0.990       .  S
O1183      H1227   0.990       .  S
O1184      H2765   0.990       .  S
O1185     Zr2727   2.375   1_455  S
O1185     Zr2988   2.374   1_455  S
O1185     Zr1205   2.383       .  S
O1186     Zr1440   2.373       .  S
O1186     Zr1206   2.382       .  S
O1186      H1213   0.966       .  S
O1187     Zr1199   2.444       .  S
O1187      C1189   1.288       .  A
O1188     Zr1206   2.421       .  S
O1188      C1189   1.285       .  A
O1190     Zr2750   2.445   1_455  S
O1190      C1192   1.288       .  A
O1191      C1192   1.287       .  A
O1193     Zr1202   2.446       .  S
O1193      C1195   1.288       .  A
O1194      C1195   1.285       .  A
O1196     Zr2747   2.444   1_455  S
O1196      C1198   1.288       .  A
O1197     Zr1205   2.425       .  S
O1197      C1198   1.286       .  A
Zr1199     O2744   2.444       .  S
Zr1199     O1200   2.436       .  S
Zr1199     O1201   2.426       .  S
Zr1199     O1207   2.372       .  S
Zr1199     O2756   2.376       .  S
Zr1199     O2759   2.366       .  S
Zr1199     O1209   2.370       .  S
O1200      H1220   0.990       .  S
O1200      H1225   0.990       .  S
O1201      H1221   0.990       .  S
Zr1202     O2738   2.445       .  S
Zr1202     O1203   2.433       .  S
Zr1202     O1204   2.431       .  S
Zr1202     O2498   2.376       .  S
Zr1202     O1212   2.370       .  S
Zr1202     O2758   2.367       .  S
O1203      H2767   0.990       .  S
O1204      H1218   0.990       .  S
O1204      H1228   0.990       .  S
Zr1205     O1432   2.427       .  S
Zr1205     O1449   2.429       .  S
Zr1205     O1208   2.383       .  S
Zr1205     O1468   2.385       .  S
Zr1205     O1211   2.384       .  S
Zr1206     O1429   2.421       .  S
Zr1206     O1452   2.419       .  S
Zr1206     O1207   2.383       .  S
Zr1206     O1209   2.380       .  S
Zr1206     O1470   2.381       .  S
O1207     Zr1460   2.370       .  S
O1207      H1215   0.966       .  S
O1208     Zr2747   2.376   1_455  S
O1208     Zr3008   2.376   1_455  S
O1210     Zr2730   2.367   1_455  S
O1210     Zr2750   2.367   1_455  S
O1210      H1214   0.966       .  S
O1211     Zr2727   2.368   1_455  S
O1211     Zr2747   2.366   1_455  S
O1211      H1216   0.966       .  S
H1217      O2732   0.990       .  S
H1219      O2751   0.990   1_455  S
H1222      O2729   0.990   1_455  S
H1223      O2728   0.990   1_455  S
O1229     Zr1241   2.446       .  S
O1229      C1231   1.288       .  A
O1230     Zr1267   2.426       .  S
O1230      C1231   1.287       .  A
O1232      C1234   1.287       .  A
O1233      C1234   1.284       .  A
O1235     Zr1244   2.443       .  S
O1235      C1237   1.288       .  A
O1236      C1237   1.286       .  A
O1238      C1240   1.289       .  A
O1239     Zr1268   2.424       .  S
O1239      C1240   1.286       .  A
Zr1241     O1242   2.434       .  S
Zr1241     O1247   2.376       .  S
Zr1241     O1273   2.370       .  S
O1242      H1285   0.990       .  S
Zr1244     O1245   2.435       .  S
Zr1244     O1272   2.367       .  S
O1245      H1289   0.990       .  S
O1247     Zr1502   2.373       .  S
O1247     Zr1267   2.384       .  S
O1248     Zr1268   2.382       .  S
O1248      H1275   0.966       .  S
O1249      C1251   1.288       .  A
O1250     Zr1268   2.420       .  S
O1250      C1251   1.285       .  A
O1252     Zr1264   2.439       .  S
O1252      C1254   1.287       .  A
O1253      C1254   1.287       .  A
O1255      C1257   1.287       .  A
O1256      C1257   1.285       .  A
O1258     Zr1261   2.441       .  S
O1258      C1260   1.287       .  A
O1259     Zr1267   2.432       .  S
O1259      C1260   1.288       .  A
Zr1261     O1262   2.435       .  S
Zr1261     O1263   2.427       .  S
Zr1261     O1270   2.374       .  S
Zr1261     O1273   2.366       .  S
O1262      H1287   0.990       .  S
Zr1264     O1265   2.435       .  S
Zr1264     O1266   2.429       .  S
Zr1264     O1272   2.367       .  S
O1265      H1281   0.990       .  S
O1266      H1290   0.990   1_565  S
Zr1267     O1494   2.427       .  S
Zr1267     O1511   2.430       .  S
Zr1267     O1270   2.380       .  S
Zr1267     O1530   2.384       .  S
Zr1267     O1273   2.384       .  S
Zr1268     O1491   2.418       .  S
Zr1268     O1514   2.419       .  S
Zr1268     O1269   2.383       .  S
Zr1268     O1271   2.379       .  S
Zr1268     O1532   2.382       .  S
O1269      H1277   0.966       .  S
O1270     Zr1522   2.373       .  S
O1272      H1276   0.966       .  S
O1273      H1278   0.966       .  S
C1291      N1292   1.358       .  A
C1291      N1296   1.360       .  A
C1291      C1365   1.467       .  S
N1292      C1293   1.358       .  A
C1293      N1294   1.359       .  A
C1293      C1495   1.465       .  S
N1294      C1295   1.359       .  A
C1295      N1296   1.360       .  A
C1295      C1301   1.474       .  S
C1297      N1298   1.357       .  A
C1297      N1302   1.359       .  A
C1297      C1371   1.464       .  S
N1298      C1299   1.357       .  A
C1299      N1300   1.359       .  A
C1299      C1489   1.465       .  S
N1300      C1301   1.360       .  A
C1301      N1302   1.359       .  A
C1303      N1304   1.360       .  A
C1303      N1308   1.358       .  A
C1303      C1518   1.467       .  S
N1304      C1305   1.360       .  A
C1305      N1306   1.360       .  A
C1305      C1311   1.475       .  S
N1306      C1307   1.360       .  A
C1307      N1308   1.358       .  A
C1307      C1427   1.466       .  S
C1309      N1310   1.360       .  A
C1309      N1314   1.358       .  A
C1309      C1512   1.465       .  S
N1310      C1311   1.360       .  A
C1311      N1312   1.360       .  A
N1312      C1313   1.359       .  A
C1313      N1314   1.358       .  A
C1313      C1433   1.467       .  S
C1315      N1316   1.360       .  A
C1315      N1320   1.358       .  A
C1315      C1450   1.467       .  S
N1316      C1317   1.360       .  A
C1317      N1318   1.359       .  A
C1317      C1325   1.475       .  S
N1318      C1319   1.359       .  A
C1319      N1320   1.358       .  A
C1319      C1394   1.464       .  S
C1321      N1322   1.358       .  A
C1321      N1326   1.359       .  A
C1321      C1456   1.465       .  S
N1322      C1323   1.358       .  A
C1323      N1324   1.360       .  A
C1323      C1388   1.468       .  S
N1324      C1325   1.361       .  A
C1325      N1326   1.359       .  A
C1327      N1328   1.357       .  A
C1327      N1332   1.359       .  A
C1327      C1447   1.464       .  S
N1328      C1329   1.358       .  A
C1329      N1330   1.359       .  A
C1329      C1337   1.467       .  S
N1330      C1331   1.358       .  A
C1331      N1332   1.359       .  A
C1331      C1498   1.467       .  S
C1333      N1334   1.358       .  A
C1333      N1338   1.358       .  A
C1333      C1453   1.463       .  S
N1334      C1335   1.358       .  A
C1335      N1336   1.356       .  A
C1335      C1492   1.461       .  S
N1336      C1337   1.357       .  A
C1337      N1338   1.358       .  A
C1339      N1340   1.359       .  A
C1339      N1344   1.357       .  A
C1339      C1374   1.464       .  S
N1340      C1341   1.358       .  A
C1341      N1342   1.357       .  A
C1341      C1430   1.464       .  S
N1342      C1343   1.358       .  A
C1343      N1344   1.358       .  A
C1343      C1349   1.467       .  S
C1345      N1346   1.358       .  A
C1345      N1350   1.357       .  A
C1345      C1368   1.463       .  S
N1346      C1347   1.358       .  A
C1347      N1348   1.357       .  A
C1347      C1436   1.463       .  S
N1348      C1349   1.358       .  A
C1349      N1350   1.358       .  A
C1351      N1352   1.359       .  A
C1351      N1356   1.357       .  A
C1351      C1509   1.464       .  S
N1352      C1353   1.359       .  A
C1353      N1354   1.358       .  A
C1353      C1391   1.467       .  S
N1354      C1355   1.359       .  A
C1355      N1356   1.358       .  A
C1355      C1361   1.468       .  S
C1357      N1358   1.358       .  A
C1357      N1362   1.357       .  A
C1357      C1515   1.462       .  S
N1358      C1359   1.358       .  A
C1359      N1360   1.357       .  A
C1359      C1385   1.464       .  S
N1360      C1361   1.358       .  A
C1361      N1362   1.358       .  A
O1363     Zr1375   2.443       .  S
O1363      C1365   1.287       .  A
O1364      C1365   1.287       .  A
O1366     Zr1378   2.443       .  S
O1366      C1368   1.288       .  A
O1367     Zr1402   2.419       .  S
O1367      C1368   1.285       .  A
O1369     Zr1378   2.443       .  S
O1369      C1371   1.288       .  A
O1370     Zr1401   2.425       .  S
O1370      C1371   1.286       .  A
O1372     Zr1375   2.442       .  S
O1372      C1374   1.288       .  A
O1373      C1374   1.285       .  A
Zr1375     O1376   2.435       .  S
Zr1375     O1377   2.431       .  S
Zr1375     O1405   2.372       .  S
Zr1375     O1407   2.368       .  S
O1376      H1419   0.990       .  S
O1377      H1418   0.990       .  S
O1377      H1422   0.990       .  S
Zr1378     O1379   2.438       .  S
Zr1378     O1380   2.429       .  S
Zr1378     O1382   2.372       .  S
Zr1378     O1381   2.374       .  S
Zr1378     O1406   2.368       .  S
Zr1378     O1408   2.370       .  S
O1379      H1420   0.990       .  S
O1379      H1423   0.990       .  S
O1380      H1413   0.990       .  S
O1381     Zr1401   2.381       .  S
O1382     Zr1402   2.383       .  S
O1382      H1409   0.966       .  S
O1383     Zr1395   2.444       .  S
O1383      C1385   1.288       .  A
O1384      C1385   1.285       .  A
O1386     Zr1398   2.447       .  S
O1386      C1388   1.288       .  A
O1387     Zr1401   2.427       .  S
O1387      C1388   1.287       .  A
O1389     Zr1398   2.447       .  S
O1389      C1391   1.288       .  A
O1390     Zr1402   2.425       .  S
O1390      C1391   1.286       .  A
O1392     Zr1395   2.442       .  S
O1392      C1394   1.287       .  A
O1393      C1394   1.286       .  A
Zr1395     O1396   2.437       .  S
Zr1395     O1397   2.429       .  S
Zr1395     O1407   2.368       .  S
Zr1395     O1405   2.371       .  S
O1396      H1416   0.990       .  S
O1396      H1421   0.990       .  S
O1397      H1417   0.990       .  S
Zr1398     O1399   2.433       .  S
Zr1398     O1400   2.430       .  S
Zr1398     O1404   2.375       .  S
Zr1398     O1403   2.371       .  S
Zr1398     O1408   2.371       .  S
Zr1398     O1406   2.369       .  S
O1399      H1415   0.990       .  S
O1400      H1414   0.990       .  S
O1400      H1424   0.990       .  S
Zr1401     O1404   2.383       .  S
Zr1401     O1406   2.385       .  S
Zr1402     O1403   2.383       .  S
Zr1402     O1408   2.380       .  S
O1403      H1411   0.966       .  S
O1406      H1410   0.966       .  S
O1407      H1412   0.966       .  S
O1425     Zr2985   2.445   1_455  S
O1425      C1427   1.287       .  A
O1426     Zr1463   2.428       .  S
O1426      C1427   1.287       .  A
O1428     Zr1440   2.444       .  S
O1428      C1430   1.288       .  A
O1429      C1430   1.285       .  A
O1431     Zr2988   2.446   1_455  S
O1431      C1433   1.288       .  A
O1432      C1433   1.287       .  A
O1434     Zr1437   2.443       .  S
O1434      C1436   1.288       .  A
O1435     Zr1464   2.420       .  S
O1435      C1436   1.285       .  A
Zr1437     O2973   2.445       .  S
Zr1437     O1438   2.434       .  S
Zr1437     O1439   2.431       .  S
Zr1437     O2991   2.375       .  S
Zr1437     O1444   2.371       .  S
Zr1437     O1467   2.371       .  S
Zr1437     O3017   2.368       .  S
O1438      H3029   0.990       .  S
O1439      H3028   0.990       .  S
O1439      H1484   0.990       .  S
Zr1440     O2979   2.446       .  S
Zr1440     O1441   2.435       .  S
Zr1440     O1442   2.428       .  S
Zr1440     O2733   2.374       .  S
Zr1440     O3016   2.367       .  S
Zr1440     O1470   2.371       .  S
O1441      H1482   0.990       .  S
O1441      H1485   0.990       .  S
O1442      H3023   0.990       .  S
O1443     Zr2985   2.375   1_455  S
O1443     Zr2472   2.374   1_456  S
O1443     Zr1463   2.383       .  S
O1444     Zr1464   2.382       .  S
O1444      H1471   0.966       .  S
O1445     Zr1457   2.444       .  S
O1445      C1447   1.288       .  A
O1446     Zr1464   2.421       .  S
O1446      C1447   1.285       .  A
O1448     Zr3008   2.445   1_455  S
O1448      C1450   1.288       .  A
O1449      C1450   1.287       .  A
O1451     Zr1460   2.445       .  S
O1451      C1453   1.288       .  A
O1452      C1453   1.285       .  A
O1454     Zr3005   2.444   1_455  S
O1454      C1456   1.288       .  A
O1455     Zr1463   2.425       .  S
O1455      C1456   1.286       .  A
Zr1457     O3002   2.444       .  S
Zr1457     O1458   2.436       .  S
Zr1457     O1459   2.426       .  S
Zr1457     O1465   2.372       .  S
Zr1457     O3014   2.376       .  S
Zr1457     O3017   2.366       .  S
Zr1457     O1467   2.370       .  S
O1458      H1478   0.990       .  S
O1458      H1483   0.990       .  S
O1459      H1479   0.990       .  S
Zr1460     O2996   2.445       .  S
Zr1460     O1461   2.433       .  S
Zr1460     O1462   2.431       .  S
Zr1460     O2756   2.376       .  S
Zr1460     O1470   2.370       .  S
Zr1460     O3016   2.367       .  S
O1461      H3025   0.990       .  S
O1462      H1476   0.990       .  S
O1462      H1486   0.990       .  S
Zr1463     O1466   2.383       .  S
Zr1463     O1469   2.384       .  S
Zr1464     O1465   2.383       .  S
Zr1464     O1467   2.380       .  S
O1465      H1473   0.966       .  S
O1466     Zr3005   2.376   1_455  S
O1466     Zr2492   2.376   1_456  S
O1468     Zr2988   2.367   1_455  S
O1468     Zr3008   2.367   1_455  S
O1468      H1472   0.966       .  S
O1469     Zr2985   2.368   1_455  S
O1469     Zr3005   2.366   1_455  S
O1469      H1474   0.966       .  S
H1475      O2990   0.990       .  S
H1477      O3009   0.990   1_455  S
H1480      O2987   0.990   1_455  S
H1481      O2986   0.990   1_455  S
O1487     Zr1499   2.446       .  S
O1487      C1489   1.288       .  A
O1488     Zr1525   2.426       .  S
O1488      C1489   1.287       .  A
O1490      C1492   1.287       .  A
O1491      C1492   1.285       .  A
O1493     Zr1502   2.443       .  S
O1493      C1495   1.288       .  A
O1494      C1495   1.286       .  A
O1496      C1498   1.289       .  A
O1497     Zr1526   2.424       .  S
O1497      C1498   1.286       .  A
Zr1499     O1500   2.434       .  S
Zr1499     O1505   2.376       .  S
Zr1499     O1531   2.370       .  S
O1500      H1543   0.990       .  S
Zr1502     O1503   2.435       .  S
Zr1502     O1530   2.367       .  S
O1503      H1547   0.990       .  S
O1505     Zr1525   2.384       .  S
O1506     Zr1526   2.382       .  S
O1506      H1533   0.966       .  S
O1507      C1509   1.288       .  A
O1508     Zr1526   2.420       .  S
O1508      C1509   1.285       .  A
O1510     Zr1522   2.439       .  S
O1510      C1512   1.287       .  A
O1511      C1512   1.287       .  A
O1513      C1515   1.287       .  A
O1514      C1515   1.285       .  A
O1516     Zr1519   2.441       .  S
O1516      C1518   1.287       .  A
O1517     Zr1525   2.432       .  S
O1517      C1518   1.288       .  A
Zr1519     O1520   2.435       .  S
Zr1519     O1521   2.427       .  S
Zr1519     O1528   2.374       .  S
Zr1519     O1531   2.366       .  S
O1520      H1545   0.990       .  S
Zr1522     O1523   2.435       .  S
Zr1522     O1524   2.429       .  S
Zr1522     O1530   2.367       .  S
O1523      H1539   0.990       .  S
O1524      H1548   0.990   1_565  S
Zr1525     O1528   2.380       .  S
Zr1525     O1531   2.384       .  S
Zr1526     O1527   2.383       .  S
Zr1526     O1529   2.379       .  S
O1527      H1535   0.966       .  S
O1530      H1534   0.966       .  S
O1531      H1536   0.966       .  S
C1549      N1550   1.358       .  A
C1549      N1554   1.360       .  A
C1549      C1623   1.467       .  S
N1550      C1551   1.358       .  A
C1551      N1552   1.359       .  A
C1551      C1753   1.465       .  S
N1552      C1553   1.359       .  A
C1553      N1554   1.360       .  A
C1553      C1559   1.474       .  S
C1555      N1556   1.357       .  A
C1555      N1560   1.359       .  A
C1555      C1629   1.464       .  S
N1556      C1557   1.357       .  A
C1557      N1558   1.359       .  A
C1557      C1747   1.465       .  S
N1558      C1559   1.360       .  A
C1559      N1560   1.359       .  A
C1561      N1562   1.360       .  A
C1561      N1566   1.358       .  A
C1561      C1776   1.467       .  S
N1562      C1563   1.360       .  A
C1563      N1564   1.360       .  A
C1563      C1569   1.475       .  S
N1564      C1565   1.360       .  A
C1565      N1566   1.358       .  A
C1565      C1685   1.466       .  S
C1567      N1568   1.360       .  A
C1567      N1572   1.358       .  A
C1567      C1770   1.466       .  S
N1568      C1569   1.360       .  A
C1569      N1570   1.360       .  A
N1570      C1571   1.359       .  A
C1571      N1572   1.358       .  A
C1571      C1691   1.467       .  S
C1573      N1574   1.360       .  A
C1573      N1578   1.358       .  A
C1573      C1708   1.467       .  S
N1574      C1575   1.360       .  A
C1575      N1576   1.359       .  A
C1575      C1583   1.475       .  S
N1576      C1577   1.359       .  A
C1577      N1578   1.358       .  A
C1577      C1652   1.464       .  S
C1579      N1580   1.358       .  A
C1579      N1584   1.359       .  A
C1579      C1714   1.465       .  S
N1580      C1581   1.358       .  A
C1581      N1582   1.360       .  A
C1581      C1646   1.468       .  S
N1582      C1583   1.361       .  A
C1583      N1584   1.359       .  A
C1585      N1586   1.357       .  A
C1585      N1590   1.359       .  A
C1585      C1705   1.464       .  S
N1586      C1587   1.358       .  A
C1587      N1588   1.359       .  A
C1587      C1595   1.467       .  S
N1588      C1589   1.358       .  A
C1589      N1590   1.359       .  A
C1589      C1756   1.467       .  S
C1591      N1592   1.358       .  A
C1591      N1596   1.358       .  A
C1591      C1711   1.463       .  S
N1592      C1593   1.358       .  A
C1593      N1594   1.356       .  A
C1593      C1750   1.461       .  S
N1594      C1595   1.357       .  A
C1595      N1596   1.358       .  A
C1597      N1598   1.359       .  A
C1597      N1602   1.357       .  A
C1597      C1632   1.464       .  S
N1598      C1599   1.358       .  A
C1599      N1600   1.357       .  A
C1599      C1688   1.464       .  S
N1600      C1601   1.358       .  A
C1601      N1602   1.358       .  A
C1601      C1607   1.467       .  S
C1603      N1604   1.358       .  A
C1603      N1608   1.357       .  A
C1603      C1626   1.463       .  S
N1604      C1605   1.358       .  A
C1605      N1606   1.357       .  A
C1605      C1694   1.463       .  S
N1606      C1607   1.358       .  A
C1607      N1608   1.358       .  A
C1609      N1610   1.359       .  A
C1609      N1614   1.357       .  A
C1609      C1767   1.464       .  S
N1610      C1611   1.359       .  A
C1611      N1612   1.358       .  A
C1611      C1649   1.467       .  S
N1612      C1613   1.359       .  A
C1613      N1614   1.358       .  A
C1613      C1619   1.468       .  S
C1615      N1616   1.358       .  A
C1615      N1620   1.357       .  A
C1615      C1773   1.462       .  S
N1616      C1617   1.358       .  A
C1617      N1618   1.357       .  A
C1617      C1643   1.464       .  S
N1618      C1619   1.358       .  A
C1619      N1620   1.358       .  A
O1621     Zr1633   2.443       .  S
O1621      C1623   1.287       .  A
O1622     Zr2175   2.432   1_554  S
O1622      C1623   1.287       .  A
O1624     Zr1636   2.443       .  S
O1624      C1626   1.288       .  A
O1625     Zr1660   2.419       .  S
O1625      C1626   1.285       .  A
O1627     Zr1636   2.443       .  S
O1627      C1629   1.288       .  A
O1628     Zr1659   2.425       .  S
O1628      C1629   1.286       .  A
O1630     Zr1633   2.442       .  S
O1630      C1632   1.288       .  A
O1631     Zr2176   2.424   1_554  S
O1631      C1632   1.285       .  A
Zr1633     O1634   2.435       .  S
Zr1633     O1635   2.431       .  S
Zr1633     O2155   2.374   1_554  S
Zr1633     O2156   2.370   1_554  S
Zr1633     O1663   2.372       .  S
Zr1633     O1665   2.368       .  S
O1634      H1677   0.990       .  S
O1635      H1676   0.990       .  S
O1635      H1680   0.990       .  S
Zr1636     O1637   2.438       .  S
Zr1636     O1638   2.429       .  S
Zr1636     O1640   2.372       .  S
Zr1636     O1639   2.374       .  S
Zr1636     O1664   2.368       .  S
Zr1636     O1666   2.370       .  S
O1637      H1678   0.990       .  S
O1637      H1681   0.990       .  S
O1638      H1671   0.990       .  S
O1639     Zr1891   2.374       .  S
O1639     Zr1659   2.381       .  S
O1640     Zr1891   2.370       .  S
O1640     Zr1660   2.383       .  S
O1640      H1667   0.966       .  S
O1641     Zr1653   2.444       .  S
O1641      C1643   1.288       .  A
O1642     Zr2176   2.422   1_554  S
O1642      C1643   1.285       .  A
O1644     Zr1656   2.447       .  S
O1644      C1646   1.288       .  A
O1645     Zr1659   2.427       .  S
O1645      C1646   1.287       .  A
O1647     Zr1656   2.447       .  S
O1647      C1649   1.288       .  A
O1648     Zr1660   2.425       .  S
O1648      C1649   1.286       .  A
O1650     Zr1653   2.442       .  S
O1650      C1652   1.287       .  A
O1651     Zr2175   2.424   1_554  S
O1651      C1652   1.286       .  A
Zr1653     O1654   2.437       .  S
Zr1653     O1655   2.429       .  S
Zr1653     O2177   2.373   1_554  S
Zr1653     O2178   2.375   1_554  S
Zr1653     O1665   2.368       .  S
Zr1653     O1663   2.371       .  S
O1654      H1674   0.990       .  S
O1654      H1679   0.990       .  S
O1655      H1675   0.990       .  S
Zr1656     O1657   2.433       .  S
Zr1656     O1658   2.430       .  S
Zr1656     O1662   2.375       .  S
Zr1656     O1661   2.371       .  S
Zr1656     O1666   2.371       .  S
Zr1656     O1664   2.369       .  S
O1657      H1673   0.990       .  S
O1658      H1672   0.990       .  S
O1658      H1682   0.990       .  S
Zr1659     O1880   2.432       .  S
Zr1659     O1909   2.424       .  S
Zr1659     O1662   2.383       .  S
Zr1659     O1664   2.385       .  S
Zr1659     O1923   2.383       .  S
Zr1660     O1889   2.424       .  S
Zr1660     O1900   2.422       .  S
Zr1660     O1661   2.383       .  S
Zr1660     O1921   2.382       .  S
Zr1660     O1666   2.380       .  S
O1661     Zr1911   2.373       .  S
O1661      H1669   0.966       .  S
O1662     Zr1911   2.375       .  S
O1663     Zr2176   2.382   1_554  S
O1664      H1668   0.966       .  S
O1665     Zr2175   2.383   1_554  S
O1665      H1670   0.966       .  S
O1683      C1685   1.287       .  A
O1684     Zr1721   2.428       .  S
O1684      C1685   1.287       .  A
O1686     Zr1698   2.444       .  S
O1686      C1688   1.288       .  A
O1687     Zr2238   2.422   1_554  S
O1687      C1688   1.285       .  A
O1689      C1691   1.288       .  A
O1690     Zr2237   2.427   1_554  S
O1690      C1691   1.287       .  A
O1692     Zr1695   2.443       .  S
O1692      C1694   1.288       .  A
O1693     Zr1722   2.420       .  S
O1693      C1694   1.285       .  A
Zr1695     O1696   2.434       .  S
Zr1695     O1697   2.431       .  S
Zr1695     O1702   2.371       .  S
Zr1695     O1725   2.371       .  S
O1697      H1742   0.990       .  S
Zr1698     O1699   2.435       .  S
Zr1698     O1700   2.428       .  S
Zr1698     O2218   2.373   1_554  S
Zr1698     O1728   2.371       .  S
O1699      H1740   0.990       .  S
O1699      H1743   0.990       .  S
O1701     Zr1721   2.383       .  S
O1702     Zr1956   2.373       .  S
O1702     Zr1722   2.382       .  S
O1702      H1729   0.966       .  S
O1703     Zr1715   2.444       .  S
O1703      C1705   1.288       .  A
O1704     Zr1722   2.421       .  S
O1704      C1705   1.285       .  A
O1706      C1708   1.288       .  A
O1707     Zr2237   2.429   1_554  S
O1707      C1708   1.287       .  A
O1709     Zr1718   2.446       .  S
O1709      C1711   1.288       .  A
O1710     Zr2238   2.419   1_554  S
O1710      C1711   1.285       .  A
O1712      C1714   1.288       .  A
O1713     Zr1721   2.425       .  S
O1713      C1714   1.286       .  A
Zr1715     O1716   2.436       .  S
Zr1715     O1717   2.426       .  S
Zr1715     O1723   2.372       .  S
Zr1715     O1725   2.370       .  S
O1716      H1736   0.990       .  S
O1716      H1741   0.990       .  S
O1717      H1737   0.990       .  S
Zr1718     O1719   2.433       .  S
Zr1718     O1720   2.431       .  S
Zr1718     O2239   2.370   1_554  S
Zr1718     O1728   2.370       .  S
O1720      H1734   0.990       .  S
O1720      H1744   0.990       .  S
Zr1721     O1948   2.427       .  S
Zr1721     O1965   2.429       .  S
Zr1721     O1724   2.383       .  S
Zr1721     O1984   2.385       .  S
Zr1721     O1727   2.384       .  S
Zr1722     O1945   2.421       .  S
Zr1722     O1968   2.419       .  S
Zr1722     O1723   2.383       .  S
Zr1722     O1725   2.380       .  S
Zr1722     O1986   2.381       .  S
O1723     Zr1976   2.370       .  S
O1723      H1731   0.966       .  S
O1726     Zr2237   2.385   1_554  S
O1726      H1730   0.966       .  S
O1727      H1732   0.966       .  S
O1728     Zr2238   2.381   1_554  S
O1745     Zr1757   2.446       .  S
O1745      C1747   1.288       .  A
O1746     Zr1783   2.426       .  S
O1746      C1747   1.287       .  A
O1748     Zr2534   2.440   1_545  S
O1748      C1750   1.287       .  A
O1749     Zr2300   2.418   1_554  S
O1749      C1750   1.284       .  A
O1751     Zr1760   2.443       .  S
O1751      C1753   1.288       .  A
O1752     Zr2299   2.427   1_554  S
O1752      C1753   1.286       .  A
O1754     Zr2531   2.448   1_545  S
O1754      C1756   1.289       .  A
O1755     Zr1784   2.424       .  S
O1755      C1756   1.286       .  A
Zr1757     O2528   2.448       .  S
Zr1757     O1758   2.434       .  S
Zr1757     O2533   2.430       .  S
Zr1757     O1763   2.376       .  S
Zr1757     O2538   2.370       .  S
Zr1757     O2561   2.369       .  S
Zr1757     O1789   2.370       .  S
O1758      H1801   0.990       .  S
O1759     Zr2531   2.430       .  S
O1759      H2574   0.990       .  S
O1759      H2578   0.990       .  S
Zr1760     O2522   2.440       .  S
Zr1760     O1761   2.435       .  S
Zr1760     O2536   2.428       .  S
Zr1760     O3054   2.373   1_554  S
Zr1760     O2279   2.373   1_554  S
Zr1760     O1788   2.367       .  S
Zr1760     O2564   2.372       .  S
O1761      H2576   0.990       .  S
O1761      H1805   0.990       .  S
O1762     Zr2534   2.428       .  S
O1762      H2569   0.990   1_565  S
O1763     Zr2018   2.373       .  S
O1763     Zr1783   2.384       .  S
O1764     Zr2531   2.370   1_545  S
O1764     Zr2792   2.373   1_545  S
O1764     Zr1784   2.382       .  S
O1764      H1791   0.966       .  S
O1765     Zr2551   2.445   1_545  S
O1765      C1767   1.288       .  A
O1766     Zr1784   2.420       .  S
O1766      C1767   1.285       .  A
O1768     Zr1780   2.439       .  S
O1768      C1770   1.287       .  A
O1769     Zr2299   2.430   1_554  S
O1769      C1770   1.287       .  A
O1771     Zr2554   2.442   1_545  S
O1771      C1773   1.287       .  A
O1772     Zr2300   2.419   1_554  S
O1772      C1773   1.285       .  A
O1774     Zr1777   2.441       .  S
O1774      C1776   1.287       .  A
O1775     Zr1783   2.432       .  S
O1775      C1776   1.288       .  A
Zr1777     O2539   2.445       .  S
Zr1777     O1778   2.435       .  S
Zr1777     O1779   2.427       .  S
Zr1777     O2559   2.371       .  S
Zr1777     O1786   2.374       .  S
Zr1777     O1789   2.366       .  S
Zr1777     O2561   2.369       .  S
O1778      H2572   0.990       .  S
O1778      H1803   0.990       .  S
O1779      H2573   0.990       .  S
Zr1780     O2545   2.442       .  S
Zr1780     O1781   2.435       .  S
Zr1780     O1782   2.429       .  S
Zr1780     O2302   2.373   1_554  S
Zr1780     O3075   2.370   1_554  S
Zr1780     O2564   2.371       .  S
Zr1780     O1788   2.367       .  S
O1781      H1797   0.990       .  S
O1782      H2570   0.990       .  S
O1782      H1806   0.990       .  S
Zr1783     O2010   2.427       .  S
Zr1783     O2027   2.430       .  S
Zr1783     O1786   2.380       .  S
Zr1783     O2046   2.384       .  S
Zr1783     O1789   2.384       .  S
Zr1784     O2007   2.418       .  S
Zr1784     O2030   2.419       .  S
Zr1784     O1785   2.383       .  S
Zr1784     O1787   2.379       .  S
Zr1784     O2048   2.382       .  S
O1785     Zr2551   2.371   1_545  S
O1785     Zr2812   2.370   1_545  S
O1785      H1793   0.966       .  S
O1786     Zr2038   2.374       .  S
O1787     Zr2531   2.369   1_545  S
O1787     Zr2551   2.369   1_545  S
O1788     Zr2299   2.384   1_554  S
O1788      H1792   0.966       .  S
O1789      H1794   0.966       .  S
O1790     Zr2534   2.372   1_545  S
O1790     Zr2554   2.371   1_545  S
O1790     Zr2300   2.382   1_554  S
H1795      O2536   0.990       .  S
H1796      O2556   0.990   1_545  S
H1798      O2552   0.990   1_545  S
H1799      O2553   0.990       .  S
H1800      O2533   0.990       .  S
H1802      O2535   0.990   1_545  S
H1804      O2533   0.990       .  S
C1807      N1808   1.358       .  A
C1807      N1812   1.360       .  A
C1807      C1881   1.467       .  S
N1808      C1809   1.358       .  A
C1809      N1810   1.359       .  A
C1809      C2011   1.465       .  S
N1810      C1811   1.359       .  A
C1811      N1812   1.360       .  A
C1811      C1817   1.474       .  S
C1813      N1814   1.357       .  A
C1813      N1818   1.359       .  A
C1813      C1887   1.464       .  S
N1814      C1815   1.357       .  A
C1815      N1816   1.359       .  A
C1815      C2005   1.465       .  S
N1816      C1817   1.360       .  A
C1817      N1818   1.359       .  A
C1819      N1820   1.360       .  A
C1819      N1824   1.358       .  A
C1819      C2034   1.467       .  S
N1820      C1821   1.360       .  A
C1821      N1822   1.360       .  A
C1821      C1827   1.475       .  S
N1822      C1823   1.360       .  A
C1823      N1824   1.358       .  A
C1823      C1943   1.466       .  S
C1825      N1826   1.360       .  A
C1825      N1830   1.358       .  A
C1825      C2028   1.466       .  S
N1826      C1827   1.360       .  A
C1827      N1828   1.360       .  A
N1828      C1829   1.359       .  A
C1829      N1830   1.358       .  A
C1829      C1949   1.467       .  S
C1831      N1832   1.360       .  A
C1831      N1836   1.358       .  A
C1831      C1966   1.467       .  S
N1832      C1833   1.360       .  A
C1833      N1834   1.359       .  A
C1833      C1841   1.475       .  S
N1834      C1835   1.359       .  A
C1835      N1836   1.358       .  A
C1835      C1910   1.464       .  S
C1837      N1838   1.358       .  A
C1837      N1842   1.359       .  A
C1837      C1972   1.465       .  S
N1838      C1839   1.358       .  A
C1839      N1840   1.360       .  A
C1839      C1904   1.468       .  S
N1840      C1841   1.361       .  A
C1841      N1842   1.359       .  A
C1843      N1844   1.357       .  A
C1843      N1848   1.359       .  A
C1843      C1963   1.464       .  S
N1844      C1845   1.358       .  A
C1845      N1846   1.359       .  A
C1845      C1853   1.467       .  S
N1846      C1847   1.358       .  A
C1847      N1848   1.359       .  A
C1847      C2014   1.467       .  S
C1849      N1850   1.358       .  A
C1849      N1854   1.358       .  A
C1849      C1969   1.463       .  S
N1850      C1851   1.358       .  A
C1851      N1852   1.356       .  A
C1851      C2008   1.461       .  S
N1852      C1853   1.357       .  A
C1853      N1854   1.358       .  A
C1855      N1856   1.359       .  A
C1855      N1860   1.357       .  A
C1855      C1890   1.464       .  S
N1856      C1857   1.358       .  A
C1857      N1858   1.357       .  A
C1857      C1946   1.464       .  S
N1858      C1859   1.358       .  A
C1859      N1860   1.358       .  A
C1859      C1865   1.467       .  S
C1861      N1862   1.358       .  A
C1861      N1866   1.357       .  A
C1861      C1884   1.463       .  S
N1862      C1863   1.358       .  A
C1863      N1864   1.357       .  A
C1863      C1952   1.463       .  S
N1864      C1865   1.358       .  A
C1865      N1866   1.358       .  A
C1867      N1868   1.359       .  A
C1867      N1872   1.357       .  A
C1867      C2025   1.464       .  S
N1868      C1869   1.359       .  A
C1869      N1870   1.358       .  A
C1869      C1907   1.467       .  S
N1870      C1871   1.359       .  A
C1871      N1872   1.358       .  A
C1871      C1877   1.468       .  S
C1873      N1874   1.358       .  A
C1873      N1878   1.357       .  A
C1873      C2031   1.462       .  S
N1874      C1875   1.358       .  A
C1875      N1876   1.357       .  A
C1875      C1901   1.464       .  S
N1876      C1877   1.358       .  A
C1877      N1878   1.358       .  A
O1879     Zr1891   2.443       .  S
O1879      C1881   1.287       .  A
O1880      C1881   1.287       .  A
O1882     Zr1894   2.443       .  S
O1882      C1884   1.288       .  A
O1883     Zr1918   2.419       .  S
O1883      C1884   1.285       .  A
O1885     Zr1894   2.443       .  S
O1885      C1887   1.288       .  A
O1886     Zr1917   2.425       .  S
O1886      C1887   1.286       .  A
O1888     Zr1891   2.442       .  S
O1888      C1890   1.288       .  A
O1889      C1890   1.285       .  A
Zr1891     O1892   2.435       .  S
Zr1891     O1893   2.431       .  S
Zr1891     O1921   2.372       .  S
Zr1891     O1923   2.368       .  S
O1892      H1935   0.990       .  S
O1893      H1934   0.990       .  S
O1893      H1938   0.990       .  S
Zr1894     O1895   2.438       .  S
Zr1894     O1896   2.429       .  S
Zr1894     O1898   2.372       .  S
Zr1894     O1897   2.374       .  S
Zr1894     O1922   2.368       .  S
Zr1894     O1924   2.370       .  S
O1895      H1936   0.990       .  S
O1895      H1939   0.990       .  S
O1896      H1929   0.990       .  S
O1897     Zr2149   2.374       .  S
O1897     Zr1917   2.381       .  S
O1898     Zr2149   2.370       .  S
O1898     Zr1918   2.383       .  S
O1898      H1925   0.966       .  S
O1899     Zr1911   2.444       .  S
O1899      C1901   1.288       .  A
O1900      C1901   1.285       .  A
O1902     Zr1914   2.447       .  S
O1902      C1904   1.288       .  A
O1903     Zr1917   2.427       .  S
O1903      C1904   1.287       .  A
O1905     Zr1914   2.447       .  S
O1905      C1907   1.288       .  A
O1906     Zr1918   2.425       .  S
O1906      C1907   1.286       .  A
O1908     Zr1911   2.442       .  S
O1908      C1910   1.287       .  A
O1909      C1910   1.286       .  A
Zr1911     O1912   2.437       .  S
Zr1911     O1913   2.429       .  S
Zr1911     O1923   2.368       .  S
Zr1911     O1921   2.371       .  S
O1912      H1932   0.990       .  S
O1912      H1937   0.990       .  S
O1913      H1933   0.990       .  S
Zr1914     O1915   2.433       .  S
Zr1914     O1916   2.430       .  S
Zr1914     O1920   2.375       .  S
Zr1914     O1919   2.371       .  S
Zr1914     O1924   2.371       .  S
Zr1914     O1922   2.369       .  S
O1915      H1931   0.990       .  S
O1916      H1930   0.990       .  S
O1916      H1940   0.990       .  S
Zr1917     O2138   2.432       .  S
Zr1917     O2167   2.424       .  S
Zr1917     O1920   2.383       .  S
Zr1917     O1922   2.385       .  S
Zr1917     O2181   2.383       .  S
Zr1918     O2147   2.424       .  S
Zr1918     O2158   2.422       .  S
Zr1918     O1919   2.383       .  S
Zr1918     O2179   2.382       .  S
Zr1918     O1924   2.380       .  S
O1919     Zr2169   2.373       .  S
O1919      H1927   0.966       .  S
O1920     Zr2169   2.375       .  S
O1922      H1926   0.966       .  S
O1923      H1928   0.966       .  S
O1941      C1943   1.287       .  A
O1942     Zr1979   2.428       .  S
O1942      C1943   1.287       .  A
O1944     Zr1956   2.444       .  S
O1944      C1946   1.288       .  A
O1945      C1946   1.285       .  A
O1947      C1949   1.288       .  A
O1948      C1949   1.287       .  A
O1950     Zr1953   2.443       .  S
O1950      C1952   1.288       .  A
O1951     Zr1980   2.420       .  S
O1951      C1952   1.285       .  A
Zr1953     O1954   2.434       .  S
Zr1953     O1955   2.431       .  S
Zr1953     O1960   2.371       .  S
Zr1953     O1983   2.371       .  S
O1955      H2000   0.990       .  S
Zr1956     O1957   2.435       .  S
Zr1956     O1958   2.428       .  S
Zr1956     O1986   2.371       .  S
O1957      H1998   0.990       .  S
O1957      H2001   0.990       .  S
O1959     Zr1979   2.383       .  S
O1960     Zr2214   2.373       .  S
O1960     Zr1980   2.382       .  S
O1960      H1987   0.966       .  S
O1961     Zr1973   2.444       .  S
O1961      C1963   1.288       .  A
O1962     Zr1980   2.421       .  S
O1962      C1963   1.285       .  A
O1964      C1966   1.288       .  A
O1965      C1966   1.287       .  A
O1967     Zr1976   2.445       .  S
O1967      C1969   1.288       .  A
O1968      C1969   1.285       .  A
O1970      C1972   1.288       .  A
O1971     Zr1979   2.425       .  S
O1971      C1972   1.286       .  A
Zr1973     O1974   2.436       .  S
Zr1973     O1975   2.426       .  S
Zr1973     O1981   2.372       .  S
Zr1973     O1983   2.370       .  S
O1974      H1994   0.990       .  S
O1974      H1999   0.990       .  S
O1975      H1995   0.990       .  S
Zr1976     O1977   2.433       .  S
Zr1976     O1978   2.431       .  S
Zr1976     O1986   2.370       .  S
O1978      H1992   0.990       .  S
O1978      H2002   0.990       .  S
Zr1979     O2206   2.427       .  S
Zr1979     O2223   2.429       .  S
Zr1979     O1982   2.383       .  S
Zr1979     O2242   2.385       .  S
Zr1979     O1985   2.384       .  S
Zr1980     O2203   2.422       .  S
Zr1980     O2226   2.419       .  S
Zr1980     O1981   2.383       .  S
Zr1980     O1983   2.380       .  S
Zr1980     O2244   2.381       .  S
O1981     Zr2234   2.370       .  S
O1981      H1989   0.966       .  S
O1984      H1988   0.966       .  S
O1985      H1990   0.966       .  S
O2003     Zr2015   2.446       .  S
O2003      C2005   1.288       .  A
O2004     Zr2041   2.426       .  S
O2004      C2005   1.287       .  A
O2006     Zr2792   2.440   1_545  S
O2006      C2008   1.287       .  A
O2007      C2008   1.285       .  A
O2009     Zr2018   2.443       .  S
O2009      C2011   1.288       .  A
O2010      C2011   1.286       .  A
O2012     Zr2789   2.448   1_545  S
O2012      C2014   1.289       .  A
O2013     Zr2042   2.424       .  S
O2013      C2014   1.286       .  A
Zr2015     O2786   2.448       .  S
Zr2015     O2016   2.434       .  S
Zr2015     O2791   2.430       .  S
Zr2015     O2021   2.376       .  S
Zr2015     O2796   2.370       .  S
Zr2015     O2819   2.369       .  S
Zr2015     O2047   2.370       .  S
O2016      H2059   0.990       .  S
O2017     Zr2789   2.430       .  S
O2017      H2832   0.990       .  S
O2017      H2836   0.990       .  S
Zr2018     O2780   2.440       .  S
Zr2018     O2019   2.435       .  S
Zr2018     O2794   2.428       .  S
Zr2018     O2538   2.373       .  S
Zr2018     O2046   2.367       .  S
Zr2018     O2822   2.372       .  S
O2019      H2834   0.990       .  S
O2019      H2063   0.990       .  S
O2020     Zr2792   2.428       .  S
O2020      H2827   0.990   1_565  S
O2021     Zr2276   2.373       .  S
O2021     Zr2041   2.384       .  S
O2022     Zr2789   2.370   1_545  S
O2022     Zr3050   2.373   1_545  S
O2022     Zr2042   2.382       .  S
O2022      H2049   0.966       .  S
O2023     Zr2809   2.445   1_545  S
O2023      C2025   1.288       .  A
O2024     Zr2042   2.420       .  S
O2024      C2025   1.285       .  A
O2026     Zr2038   2.439       .  S
O2026      C2028   1.287       .  A
O2027      C2028   1.287       .  A
O2029     Zr2812   2.442   1_545  S
O2029      C2031   1.287       .  A
O2030      C2031   1.285       .  A
O2032     Zr2035   2.441       .  S
O2032      C2034   1.287       .  A
O2033     Zr2041   2.432       .  S
O2033      C2034   1.288       .  A
Zr2035     O2797   2.445       .  S
Zr2035     O2036   2.435       .  S
Zr2035     O2037   2.427       .  S
Zr2035     O2817   2.371       .  S
Zr2035     O2044   2.374       .  S
Zr2035     O2047   2.366       .  S
Zr2035     O2819   2.369       .  S
O2036      H2830   0.990       .  S
O2036      H2061   0.990       .  S
O2037      H2831   0.990       .  S
Zr2038     O2803   2.442       .  S
Zr2038     O2039   2.435       .  S
Zr2038     O2040   2.429       .  S
Zr2038     O2559   2.370       .  S
Zr2038     O2822   2.371       .  S
Zr2038     O2046   2.367       .  S
O2039      H2055   0.990       .  S
O2040      H2828   0.990       .  S
O2040      H2064   0.990       .  S
Zr2041     O2268   2.427       .  S
Zr2041     O2285   2.430       .  S
Zr2041     O2044   2.380       .  S
Zr2041     O2304   2.384       .  S
Zr2041     O2047   2.384       .  S
Zr2042     O2265   2.418       .  S
Zr2042     O2288   2.419       .  S
Zr2042     O2043   2.383       .  S
Zr2042     O2045   2.379       .  S
Zr2042     O2306   2.382       .  S
O2043     Zr2809   2.371   1_545  S
O2043     Zr3070   2.370   1_545  S
O2043      H2051   0.966       .  S
O2044     Zr2296   2.374       .  S
O2045     Zr2789   2.369   1_545  S
O2045     Zr2809   2.369   1_545  S
O2046      H2050   0.966       .  S
O2047      H2052   0.966       .  S
O2048     Zr2792   2.372   1_545  S
O2048     Zr2812   2.371   1_545  S
H2053      O2794   0.990       .  S
H2054      O2814   0.990   1_545  S
H2056      O2810   0.990   1_545  S
H2057      O2811   0.990       .  S
H2058      O2791   0.990       .  S
H2060      O2793   0.990   1_545  S
H2062      O2791   0.990       .  S
C2065      N2066   1.358       .  A
C2065      N2070   1.360       .  A
C2065      C2139   1.467       .  S
N2066      C2067   1.358       .  A
C2067      N2068   1.359       .  A
C2067      C2269   1.465       .  S
N2068      C2069   1.359       .  A
C2069      N2070   1.360       .  A
C2069      C2075   1.474       .  S
C2071      N2072   1.357       .  A
C2071      N2076   1.359       .  A
C2071      C2145   1.464       .  S
N2072      C2073   1.357       .  A
C2073      N2074   1.359       .  A
C2073      C2263   1.465       .  S
N2074      C2075   1.360       .  A
C2075      N2076   1.359       .  A
C2077      N2078   1.360       .  A
C2077      N2082   1.358       .  A
C2077      C2292   1.467       .  S
N2078      C2079   1.360       .  A
C2079      N2080   1.360       .  A
C2079      C2085   1.475       .  S
N2080      C2081   1.360       .  A
C2081      N2082   1.358       .  A
C2081      C2201   1.466       .  S
C2083      N2084   1.360       .  A
C2083      N2088   1.358       .  A
C2083      C2286   1.465       .  S
N2084      C2085   1.360       .  A
C2085      N2086   1.360       .  A
N2086      C2087   1.359       .  A
C2087      N2088   1.358       .  A
C2087      C2207   1.467       .  S
C2089      N2090   1.360       .  A
C2089      N2094   1.358       .  A
C2089      C2224   1.467       .  S
N2090      C2091   1.360       .  A
C2091      N2092   1.359       .  A
C2091      C2099   1.475       .  S
N2092      C2093   1.359       .  A
C2093      N2094   1.358       .  A
C2093      C2168   1.464       .  S
C2095      N2096   1.358       .  A
C2095      N2100   1.359       .  A
C2095      C2230   1.465       .  S
N2096      C2097   1.358       .  A
C2097      N2098   1.360       .  A
C2097      C2162   1.468       .  S
N2098      C2099   1.361       .  A
C2099      N2100   1.359       .  A
C2101      N2102   1.357       .  A
C2101      N2106   1.359       .  A
C2101      C2221   1.464       .  S
N2102      C2103   1.358       .  A
C2103      N2104   1.359       .  A
C2103      C2111   1.467       .  S
N2104      C2105   1.357       .  A
C2105      N2106   1.359       .  A
C2105      C2272   1.467       .  S
C2107      N2108   1.358       .  A
C2107      N2112   1.358       .  A
C2107      C2227   1.463       .  S
N2108      C2109   1.358       .  A
C2109      N2110   1.356       .  A
C2109      C2266   1.461       .  S
N2110      C2111   1.357       .  A
C2111      N2112   1.358       .  A
C2113      N2114   1.359       .  A
C2113      N2118   1.357       .  A
C2113      C2148   1.464       .  S
N2114      C2115   1.358       .  A
C2115      N2116   1.357       .  A
C2115      C2204   1.464       .  S
N2116      C2117   1.358       .  A
C2117      N2118   1.358       .  A
C2117      C2123   1.467       .  S
C2119      N2120   1.358       .  A
C2119      N2124   1.357       .  A
C2119      C2142   1.463       .  S
N2120      C2121   1.358       .  A
C2121      N2122   1.357       .  A
C2121      C2210   1.463       .  S
N2122      C2123   1.358       .  A
C2123      N2124   1.358       .  A
C2125      N2126   1.359       .  A
C2125      N2130   1.357       .  A
C2125      C2283   1.464       .  S
N2126      C2127   1.359       .  A
C2127      N2128   1.358       .  A
C2127      C2165   1.467       .  S
N2128      C2129   1.359       .  A
C2129      N2130   1.358       .  A
C2129      C2135   1.468       .  S
C2131      N2132   1.358       .  A
C2131      N2136   1.357       .  A
C2131      C2289   1.462       .  S
N2132      C2133   1.358       .  A
C2133      N2134   1.357       .  A
C2133      C2159   1.464       .  S
N2134      C2135   1.358       .  A
C2135      N2136   1.358       .  A
O2137     Zr2149   2.443       .  S
O2137      C2139   1.287       .  A
O2138      C2139   1.287       .  A
O2140     Zr2152   2.443       .  S
O2140      C2142   1.288       .  A
O2141     Zr2176   2.419       .  S
O2141      C2142   1.285       .  A
O2143     Zr2152   2.443       .  S
O2143      C2145   1.288       .  A
O2144     Zr2175   2.425       .  S
O2144      C2145   1.286       .  A
O2146     Zr2149   2.442       .  S
O2146      C2148   1.288       .  A
O2147      C2148   1.285       .  A
Zr2149     O2150   2.435       .  S
Zr2149     O2151   2.431       .  S
Zr2149     O2179   2.372       .  S
Zr2149     O2181   2.368       .  S
O2150      H2193   0.990       .  S
O2151      H2192   0.990       .  S
O2151      H2196   0.990       .  S
Zr2152     O2153   2.438       .  S
Zr2152     O2154   2.429       .  S
Zr2152     O2156   2.372       .  S
Zr2152     O2155   2.374       .  S
Zr2152     O2180   2.368       .  S
Zr2152     O2182   2.370       .  S
O2153      H2194   0.990       .  S
O2153      H2197   0.990       .  S
O2154      H2187   0.990       .  S
O2155     Zr2175   2.381       .  S
O2156     Zr2176   2.383       .  S
O2156      H2183   0.966       .  S
O2157     Zr2169   2.444       .  S
O2157      C2159   1.288       .  A
O2158      C2159   1.285       .  A
O2160     Zr2172   2.447       .  S
O2160      C2162   1.288       .  A
O2161     Zr2175   2.427       .  S
O2161      C2162   1.287       .  A
O2163     Zr2172   2.447       .  S
O2163      C2165   1.288       .  A
O2164     Zr2176   2.425       .  S
O2164      C2165   1.286       .  A
O2166     Zr2169   2.442       .  S
O2166      C2168   1.287       .  A
O2167      C2168   1.286       .  A
Zr2169     O2170   2.437       .  S
Zr2169     O2171   2.429       .  S
Zr2169     O2181   2.368       .  S
Zr2169     O2179   2.371       .  S
O2170      H2190   0.990       .  S
O2170      H2195   0.990       .  S
O2171      H2191   0.990       .  S
Zr2172     O2173   2.433       .  S
Zr2172     O2174   2.430       .  S
Zr2172     O2178   2.375       .  S
Zr2172     O2177   2.371       .  S
Zr2172     O2182   2.371       .  S
Zr2172     O2180   2.369       .  S
O2173      H2189   0.990       .  S
O2174      H2188   0.990       .  S
O2174      H2198   0.990       .  S
Zr2175     O2178   2.383       .  S
Zr2175     O2180   2.385       .  S
Zr2176     O2177   2.383       .  S
Zr2176     O2182   2.380       .  S
O2177      H2185   0.966       .  S
O2180      H2184   0.966       .  S
O2181      H2186   0.966       .  S
O2199      C2201   1.287       .  A
O2200     Zr2237   2.428       .  S
O2200      C2201   1.287       .  A
O2202     Zr2214   2.444       .  S
O2202      C2204   1.288       .  A
O2203      C2204   1.285       .  A
O2205      C2207   1.288       .  A
O2206      C2207   1.287       .  A
O2208     Zr2211   2.443       .  S
O2208      C2210   1.288       .  A
O2209     Zr2238   2.420       .  S
O2209      C2210   1.285       .  A
Zr2211     O2212   2.434       .  S
Zr2211     O2213   2.431       .  S
Zr2211     O2218   2.371       .  S
Zr2211     O2241   2.371       .  S
O2213      H2258   0.990       .  S
Zr2214     O2215   2.435       .  S
Zr2214     O2216   2.428       .  S
Zr2214     O2244   2.371       .  S
O2215      H2256   0.990       .  S
O2215      H2259   0.990       .  S
O2217     Zr2237   2.383       .  S
O2218     Zr2238   2.382       .  S
O2218      H2245   0.966       .  S
O2219     Zr2231   2.444       .  S
O2219      C2221   1.288       .  A
O2220     Zr2238   2.421       .  S
O2220      C2221   1.285       .  A
O2222      C2224   1.288       .  A
O2223      C2224   1.287       .  A
O2225     Zr2234   2.446       .  S
O2225      C2227   1.288       .  A
O2226      C2227   1.285       .  A
O2228      C2230   1.288       .  A
O2229     Zr2237   2.425       .  S
O2229      C2230   1.286       .  A
Zr2231     O2232   2.436       .  S
Zr2231     O2233   2.426       .  S
Zr2231     O2239   2.372       .  S
Zr2231     O2241   2.370       .  S
O2232      H2252   0.990       .  S
O2232      H2257   0.990       .  S
O2233      H2253   0.990       .  S
Zr2234     O2235   2.433       .  S
Zr2234     O2236   2.431       .  S
Zr2234     O2244   2.370       .  S
O2236      H2250   0.990       .  S
O2236      H2260   0.990       .  S
Zr2237     O2240   2.383       .  S
Zr2237     O2243   2.384       .  S
Zr2238     O2239   2.383       .  S
Zr2238     O2241   2.380       .  S
O2239      H2247   0.966       .  S
O2242      H2246   0.966       .  S
O2243      H2248   0.966       .  S
O2261     Zr2273   2.446       .  S
O2261      C2263   1.288       .  A
O2262     Zr2299   2.426       .  S
O2262      C2263   1.287       .  A
O2264     Zr3050   2.440   1_545  S
O2264      C2266   1.287       .  A
O2265      C2266   1.285       .  A
O2267     Zr2276   2.443       .  S
O2267      C2269   1.288       .  A
O2268      C2269   1.286       .  A
O2270     Zr3047   2.448   1_545  S
O2270      C2272   1.289       .  A
O2271     Zr2300   2.424       .  S
O2271      C2272   1.286       .  A
Zr2273     O3044   2.448       .  S
Zr2273     O2274   2.434       .  S
Zr2273     O3049   2.430       .  S
Zr2273     O2279   2.376       .  S
Zr2273     O3054   2.370       .  S
Zr2273     O3077   2.369       .  S
Zr2273     O2305   2.370       .  S
O2274      H2317   0.990       .  S
O2275     Zr3047   2.430       .  S
O2275      H3090   0.990       .  S
O2275      H3094   0.990       .  S
Zr2276     O3038   2.440       .  S
Zr2276     O2277   2.435       .  S
Zr2276     O3052   2.428       .  S
Zr2276     O2796   2.373       .  S
Zr2276     O2304   2.367       .  S
Zr2276     O3080   2.372       .  S
O2277      H3092   0.990       .  S
O2277      H2321   0.990       .  S
O2278     Zr3050   2.428       .  S
O2278      H3085   0.990   1_565  S
O2279     Zr2299   2.384       .  S
O2280     Zr3047   2.370   1_545  S
O2280     Zr2534   2.373   1_546  S
O2280     Zr2300   2.382       .  S
O2280      H2307   0.966       .  S
O2281     Zr3067   2.445   1_545  S
O2281      C2283   1.288       .  A
O2282     Zr2300   2.420       .  S
O2282      C2283   1.285       .  A
O2284     Zr2296   2.439       .  S
O2284      C2286   1.287       .  A
O2285      C2286   1.287       .  A
O2287     Zr3070   2.442   1_545  S
O2287      C2289   1.287       .  A
O2288      C2289   1.285       .  A
O2290     Zr2293   2.441       .  S
O2290      C2292   1.287       .  A
O2291     Zr2299   2.432       .  S
O2291      C2292   1.288       .  A
Zr2293     O3055   2.445       .  S
Zr2293     O2294   2.435       .  S
Zr2293     O2295   2.427       .  S
Zr2293     O3075   2.371       .  S
Zr2293     O2302   2.374       .  S
Zr2293     O2305   2.366       .  S
Zr2293     O3077   2.369       .  S
O2294      H3088   0.990       .  S
O2294      H2319   0.990       .  S
O2295      H3089   0.990       .  S
Zr2296     O3061   2.442       .  S
Zr2296     O2297   2.435       .  S
Zr2296     O2298   2.429       .  S
Zr2296     O2817   2.370       .  S
Zr2296     O3080   2.371       .  S
Zr2296     O2304   2.367       .  S
O2297      H2313   0.990       .  S
O2298      H3086   0.990       .  S
O2298      H2322   0.990       .  S
Zr2299     O2302   2.380       .  S
Zr2299     O2305   2.384       .  S
Zr2300     O2301   2.383       .  S
Zr2300     O2303   2.379       .  S
O2301     Zr3067   2.371   1_545  S
O2301     Zr2554   2.370   1_546  S
O2301      H2309   0.966       .  S
O2303     Zr3047   2.369   1_545  S
O2303     Zr3067   2.369   1_545  S
O2304      H2308   0.966       .  S
O2305      H2310   0.966       .  S
O2306     Zr3050   2.372   1_545  S
O2306     Zr3070   2.371   1_545  S
H2311      O3052   0.990       .  S
H2312      O3072   0.990   1_545  S
H2314      O3068   0.990   1_545  S
H2315      O3069   0.990       .  S
H2316      O3049   0.990       .  S
H2318      O3051   0.990   1_545  S
H2320      O3049   0.990       .  S
C2323      N2324   1.358       .  A
C2323      N2328   1.360       .  A
C2323      C2397   1.467       .  S
N2324      C2325   1.358       .  A
C2325      N2326   1.359       .  A
C2325      C2527   1.465       .  S
N2326      C2327   1.359       .  A
C2327      N2328   1.360       .  A
C2327      C2333   1.474       .  S
C2329      N2330   1.357       .  A
C2329      N2334   1.359       .  A
C2329      C2403   1.464       .  S
N2330      C2331   1.357       .  A
C2331      N2332   1.359       .  A
C2331      C2521   1.465       .  S
N2332      C2333   1.360       .  A
C2333      N2334   1.359       .  A
C2335      N2336   1.360       .  A
C2335      N2340   1.358       .  A
C2335      C2550   1.467       .  S
N2336      C2337   1.360       .  A
C2337      N2338   1.360       .  A
C2337      C2343   1.475       .  S
N2338      C2339   1.360       .  A
C2339      N2340   1.358       .  A
C2339      C2459   1.466       .  S
C2341      N2342   1.360       .  A
C2341      N2346   1.358       .  A
C2341      C2544   1.466       .  S
N2342      C2343   1.360       .  A
C2343      N2344   1.360       .  A
N2344      C2345   1.359       .  A
C2345      N2346   1.358       .  A
C2345      C2465   1.467       .  S
C2347      N2348   1.360       .  A
C2347      N2352   1.358       .  A
C2347      C2482   1.467       .  S
N2348      C2349   1.360       .  A
C2349      N2350   1.359       .  A
C2349      C2357   1.475       .  S
N2350      C2351   1.359       .  A
C2351      N2352   1.358       .  A
C2351      C2426   1.464       .  S
C2353      N2354   1.358       .  A
C2353      N2358   1.359       .  A
C2353      C2488   1.465       .  S
N2354      C2355   1.358       .  A
C2355      N2356   1.360       .  A
C2355      C2420   1.468       .  S
N2356      C2357   1.361       .  A
C2357      N2358   1.359       .  A
C2359      N2360   1.357       .  A
C2359      N2364   1.359       .  A
C2359      C2479   1.464       .  S
N2360      C2361   1.358       .  A
C2361      N2362   1.359       .  A
C2361      C2369   1.467       .  S
N2362      C2363   1.358       .  A
C2363      N2364   1.359       .  A
C2363      C2530   1.467       .  S
C2365      N2366   1.358       .  A
C2365      N2370   1.358       .  A
C2365      C2485   1.463       .  S
N2366      C2367   1.358       .  A
C2367      N2368   1.356       .  A
C2367      C2524   1.461       .  S
N2368      C2369   1.357       .  A
C2369      N2370   1.358       .  A
C2371      N2372   1.359       .  A
C2371      N2376   1.357       .  A
C2371      C2406   1.464       .  S
N2372      C2373   1.358       .  A
C2373      N2374   1.357       .  A
C2373      C2462   1.464       .  S
N2374      C2375   1.358       .  A
C2375      N2376   1.358       .  A
C2375      C2381   1.467       .  S
C2377      N2378   1.358       .  A
C2377      N2382   1.357       .  A
C2377      C2400   1.463       .  S
N2378      C2379   1.358       .  A
C2379      N2380   1.357       .  A
C2379      C2468   1.463       .  S
N2380      C2381   1.358       .  A
C2381      N2382   1.358       .  A
C2383      N2384   1.359       .  A
C2383      N2388   1.357       .  A
C2383      C2541   1.464       .  S
N2384      C2385   1.359       .  A
C2385      N2386   1.358       .  A
C2385      C2423   1.467       .  S
N2386      C2387   1.359       .  A
C2387      N2388   1.358       .  A
C2387      C2393   1.468       .  S
C2389      N2390   1.358       .  A
C2389      N2394   1.357       .  A
C2389      C2547   1.462       .  S
N2390      C2391   1.358       .  A
C2391      N2392   1.357       .  A
C2391      C2417   1.464       .  S
N2392      C2393   1.358       .  A
C2393      N2394   1.358       .  A
O2395     Zr2407   2.443       .  S
O2395      C2397   1.287       .  A
O2396     Zr2949   2.432   1_554  S
O2396      C2397   1.287       .  A
O2398     Zr2410   2.443       .  S
O2398      C2400   1.288       .  A
O2399     Zr2434   2.419       .  S
O2399      C2400   1.285       .  A
O2401     Zr2410   2.443       .  S
O2401      C2403   1.288       .  A
O2402     Zr2433   2.425       .  S
O2402      C2403   1.286       .  A
O2404     Zr2407   2.442       .  S
O2404      C2406   1.288       .  A
O2405     Zr2950   2.424   1_554  S
O2405      C2406   1.285       .  A
Zr2407     O2408   2.435       .  S
Zr2407     O2409   2.431       .  S
Zr2407     O2929   2.374   1_554  S
Zr2407     O2930   2.370   1_554  S
Zr2407     O2437   2.372       .  S
Zr2407     O2439   2.368       .  S
O2408      H2451   0.990       .  S
O2409      H2450   0.990       .  S
O2409      H2454   0.990       .  S
Zr2410     O2411   2.438       .  S
Zr2410     O2412   2.429       .  S
Zr2410     O2414   2.372       .  S
Zr2410     O2413   2.374       .  S
Zr2410     O2438   2.368       .  S
Zr2410     O2440   2.370       .  S
O2411      H2452   0.990       .  S
O2411      H2455   0.990       .  S
O2412      H2445   0.990       .  S
O2413     Zr2665   2.374       .  S
O2413     Zr2433   2.381       .  S
O2414     Zr2665   2.370       .  S
O2414     Zr2434   2.383       .  S
O2414      H2441   0.966       .  S
O2415     Zr2427   2.444       .  S
O2415      C2417   1.288       .  A
O2416     Zr2950   2.422   1_554  S
O2416      C2417   1.285       .  A
O2418     Zr2430   2.447       .  S
O2418      C2420   1.288       .  A
O2419     Zr2433   2.427       .  S
O2419      C2420   1.287       .  A
O2421     Zr2430   2.447       .  S
O2421      C2423   1.288       .  A
O2422     Zr2434   2.425       .  S
O2422      C2423   1.286       .  A
O2424     Zr2427   2.442       .  S
O2424      C2426   1.287       .  A
O2425     Zr2949   2.424   1_554  S
O2425      C2426   1.286       .  A
Zr2427     O2428   2.437       .  S
Zr2427     O2429   2.429       .  S
Zr2427     O2951   2.373   1_554  S
Zr2427     O2952   2.375   1_554  S
Zr2427     O2439   2.368       .  S
Zr2427     O2437   2.371       .  S
O2428      H2448   0.990       .  S
O2428      H2453   0.990       .  S
O2429      H2449   0.990       .  S
Zr2430     O2431   2.433       .  S
Zr2430     O2432   2.430       .  S
Zr2430     O2436   2.375       .  S
Zr2430     O2435   2.371       .  S
Zr2430     O2440   2.371       .  S
Zr2430     O2438   2.369       .  S
O2431      H2447   0.990       .  S
O2432      H2446   0.990       .  S
O2432      H2456   0.990       .  S
Zr2433     O2654   2.432       .  S
Zr2433     O2683   2.424       .  S
Zr2433     O2436   2.383       .  S
Zr2433     O2438   2.385       .  S
Zr2433     O2697   2.383       .  S
Zr2434     O2663   2.424       .  S
Zr2434     O2674   2.422       .  S
Zr2434     O2435   2.383       .  S
Zr2434     O2695   2.382       .  S
Zr2434     O2440   2.380       .  S
O2435     Zr2685   2.373       .  S
O2435      H2443   0.966       .  S
O2436     Zr2685   2.375       .  S
O2437     Zr2950   2.382   1_554  S
O2438      H2442   0.966       .  S
O2439     Zr2949   2.383   1_554  S
O2439      H2444   0.966       .  S
O2457      C2459   1.287       .  A
O2458     Zr2495   2.428       .  S
O2458      C2459   1.287       .  A
O2460     Zr2472   2.444       .  S
O2460      C2462   1.288       .  A
O2461     Zr3012   2.422   1_554  S
O2461      C2462   1.285       .  A
O2463      C2465   1.288       .  A
O2464     Zr3011   2.427   1_554  S
O2464      C2465   1.287       .  A
O2466     Zr2469   2.443       .  S
O2466      C2468   1.288       .  A
O2467     Zr2496   2.420       .  S
O2467      C2468   1.285       .  A
Zr2469     O2470   2.434       .  S
Zr2469     O2471   2.431       .  S
Zr2469     O2476   2.371       .  S
Zr2469     O2499   2.371       .  S
O2471      H2516   0.990       .  S
Zr2472     O2473   2.435       .  S
Zr2472     O2474   2.428       .  S
Zr2472     O2992   2.373   1_554  S
Zr2472     O2502   2.371       .  S
O2473      H2514   0.990       .  S
O2473      H2517   0.990       .  S
O2475     Zr2495   2.383       .  S
O2476     Zr2730   2.373       .  S
O2476     Zr2496   2.382       .  S
O2476      H2503   0.966       .  S
O2477     Zr2489   2.444       .  S
O2477      C2479   1.288       .  A
O2478     Zr2496   2.421       .  S
O2478      C2479   1.285       .  A
O2480      C2482   1.288       .  A
O2481     Zr3011   2.429   1_554  S
O2481      C2482   1.287       .  A
O2483     Zr2492   2.446       .  S
O2483      C2485   1.288       .  A
O2484     Zr3012   2.419   1_554  S
O2484      C2485   1.285       .  A
O2486      C2488   1.288       .  A
O2487     Zr2495   2.425       .  S
O2487      C2488   1.286       .  A
Zr2489     O2490   2.436       .  S
Zr2489     O2491   2.426       .  S
Zr2489     O2497   2.372       .  S
Zr2489     O2499   2.370       .  S
O2490      H2510   0.990       .  S
O2490      H2515   0.990       .  S
O2491      H2511   0.990       .  S
Zr2492     O2493   2.433       .  S
Zr2492     O2494   2.431       .  S
Zr2492     O3013   2.370   1_554  S
Zr2492     O2502   2.370       .  S
O2494      H2508   0.990       .  S
O2494      H2518   0.990       .  S
Zr2495     O2722   2.427       .  S
Zr2495     O2739   2.429       .  S
Zr2495     O2498   2.383       .  S
Zr2495     O2758   2.385       .  S
Zr2495     O2501   2.384       .  S
Zr2496     O2719   2.421       .  S
Zr2496     O2742   2.419       .  S
Zr2496     O2497   2.383       .  S
Zr2496     O2499   2.380       .  S
Zr2496     O2760   2.381       .  S
O2497     Zr2750   2.370       .  S
O2497      H2505   0.966       .  S
O2500     Zr3011   2.385   1_554  S
O2500      H2504   0.966       .  S
O2501      H2506   0.966       .  S
O2502     Zr3012   2.381   1_554  S
O2519     Zr2531   2.446       .  S
O2519      C2521   1.288       .  A
O2520     Zr2557   2.426       .  S
O2520      C2521   1.287       .  A
O2522      C2524   1.287       .  A
O2523     Zr3074   2.418   1_554  S
O2523      C2524   1.285       .  A
O2525     Zr2534   2.443       .  S
O2525      C2527   1.288       .  A
O2526     Zr3073   2.427   1_554  S
O2526      C2527   1.286       .  A
O2528      C2530   1.289       .  A
O2529     Zr2558   2.424       .  S
O2529      C2530   1.286       .  A
Zr2531     O2532   2.434       .  S
Zr2531     O2537   2.376       .  S
Zr2531     O2563   2.370       .  S
O2532      H2575   0.990       .  S
Zr2534     O2535   2.435       .  S
Zr2534     O3053   2.373   1_554  S
Zr2534     O2562   2.367       .  S
O2535      H2579   0.990       .  S
O2537     Zr2792   2.373       .  S
O2537     Zr2557   2.384       .  S
O2538     Zr2558   2.382       .  S
O2538      H2565   0.966       .  S
O2539      C2541   1.288       .  A
O2540     Zr2558   2.420       .  S
O2540      C2541   1.285       .  A
O2542     Zr2554   2.439       .  S
O2542      C2544   1.287       .  A
O2543     Zr3073   2.430   1_554  S
O2543      C2544   1.287       .  A
O2545      C2547   1.287       .  A
O2546     Zr3074   2.419   1_554  S
O2546      C2547   1.285       .  A
O2548     Zr2551   2.441       .  S
O2548      C2550   1.287       .  A
O2549     Zr2557   2.432       .  S
O2549      C2550   1.288       .  A
Zr2551     O2552   2.435       .  S
Zr2551     O2553   2.427       .  S
Zr2551     O2560   2.374       .  S
Zr2551     O2563   2.366       .  S
O2552      H2577   0.990       .  S
Zr2554     O2555   2.435       .  S
Zr2554     O2556   2.429       .  S
Zr2554     O3076   2.374   1_554  S
Zr2554     O2562   2.367       .  S
O2555      H2571   0.990       .  S
O2556      H2580   0.990   1_565  S
Zr2557     O2784   2.427       .  S
Zr2557     O2801   2.430       .  S
Zr2557     O2560   2.380       .  S
Zr2557     O2820   2.384       .  S
Zr2557     O2563   2.384       .  S
Zr2558     O2781   2.418       .  S
Zr2558     O2804   2.419       .  S
Zr2558     O2559   2.383       .  S
Zr2558     O2561   2.379       .  S
Zr2558     O2822   2.382       .  S
O2559      H2567   0.966       .  S
O2560     Zr2812   2.374       .  S
O2562     Zr3073   2.384   1_554  S
O2562      H2566   0.966       .  S
O2563      H2568   0.966       .  S
O2564     Zr3074   2.382   1_554  S
C2581      N2582   1.358       .  A
C2581      N2586   1.360       .  A
C2581      C2655   1.467       .  S
N2582      C2583   1.358       .  A
C2583      N2584   1.359       .  A
C2583      C2785   1.465       .  S
N2584      C2585   1.359       .  A
C2585      N2586   1.360       .  A
C2585      C2591   1.474       .  S
C2587      N2588   1.357       .  A
C2587      N2592   1.359       .  A
C2587      C2661   1.464       .  S
N2588      C2589   1.357       .  A
C2589      N2590   1.359       .  A
C2589      C2779   1.465       .  S
N2590      C2591   1.360       .  A
C2591      N2592   1.359       .  A
C2593      N2594   1.360       .  A
C2593      N2598   1.358       .  A
C2593      C2808   1.467       .  S
N2594      C2595   1.360       .  A
C2595      N2596   1.360       .  A
C2595      C2601   1.475       .  S
N2596      C2597   1.360       .  A
C2597      N2598   1.358       .  A
C2597      C2717   1.466       .  S
C2599      N2600   1.360       .  A
C2599      N2604   1.358       .  A
C2599      C2802   1.465       .  S
N2600      C2601   1.360       .  A
C2601      N2602   1.360       .  A
N2602      C2603   1.359       .  A
C2603      N2604   1.358       .  A
C2603      C2723   1.467       .  S
C2605      N2606   1.360       .  A
C2605      N2610   1.358       .  A
C2605      C2740   1.467       .  S
N2606      C2607   1.360       .  A
C2607      N2608   1.359       .  A
C2607      C2615   1.475       .  S
N2608      C2609   1.359       .  A
C2609      N2610   1.358       .  A
C2609      C2684   1.464       .  S
C2611      N2612   1.358       .  A
C2611      N2616   1.359       .  A
C2611      C2746   1.465       .  S
N2612      C2613   1.358       .  A
C2613      N2614   1.360       .  A
C2613      C2678   1.468       .  S
N2614      C2615   1.361       .  A
C2615      N2616   1.359       .  A
C2617      N2618   1.357       .  A
C2617      N2622   1.359       .  A
C2617      C2737   1.464       .  S
N2618      C2619   1.358       .  A
C2619      N2620   1.359       .  A
C2619      C2627   1.467       .  S
N2620      C2621   1.358       .  A
C2621      N2622   1.359       .  A
C2621      C2788   1.467       .  S
C2623      N2624   1.358       .  A
C2623      N2628   1.358       .  A
C2623      C2743   1.463       .  S
N2624      C2625   1.358       .  A
C2625      N2626   1.356       .  A
C2625      C2782   1.461       .  S
N2626      C2627   1.357       .  A
C2627      N2628   1.358       .  A
C2629      N2630   1.359       .  A
C2629      N2634   1.357       .  A
C2629      C2664   1.464       .  S
N2630      C2631   1.358       .  A
C2631      N2632   1.357       .  A
C2631      C2720   1.464       .  S
N2632      C2633   1.358       .  A
C2633      N2634   1.358       .  A
C2633      C2639   1.467       .  S
C2635      N2636   1.358       .  A
C2635      N2640   1.357       .  A
C2635      C2658   1.463       .  S
N2636      C2637   1.358       .  A
C2637      N2638   1.357       .  A
C2637      C2726   1.463       .  S
N2638      C2639   1.358       .  A
C2639      N2640   1.358       .  A
C2641      N2642   1.359       .  A
C2641      N2646   1.357       .  A
C2641      C2799   1.464       .  S
N2642      C2643   1.359       .  A
C2643      N2644   1.358       .  A
C2643      C2681   1.467       .  S
N2644      C2645   1.359       .  A
C2645      N2646   1.358       .  A
C2645      C2651   1.468       .  S
C2647      N2648   1.358       .  A
C2647      N2652   1.357       .  A
C2647      C2805   1.462       .  S
N2648      C2649   1.358       .  A
C2649      N2650   1.357       .  A
C2649      C2675   1.464       .  S
N2650      C2651   1.358       .  A
C2651      N2652   1.358       .  A
O2653     Zr2665   2.443       .  S
O2653      C2655   1.287       .  A
O2654      C2655   1.287       .  A
O2656     Zr2668   2.443       .  S
O2656      C2658   1.288       .  A
O2657     Zr2692   2.419       .  S
O2657      C2658   1.285       .  A
O2659     Zr2668   2.443       .  S
O2659      C2661   1.288       .  A
O2660     Zr2691   2.425       .  S
O2660      C2661   1.286       .  A
O2662     Zr2665   2.442       .  S
O2662      C2664   1.288       .  A
O2663      C2664   1.285       .  A
Zr2665     O2666   2.435       .  S
Zr2665     O2667   2.431       .  S
Zr2665     O2695   2.372       .  S
Zr2665     O2697   2.368       .  S
O2666      H2709   0.990       .  S
O2667      H2708   0.990       .  S
O2667      H2712   0.990       .  S
Zr2668     O2669   2.438       .  S
Zr2668     O2670   2.429       .  S
Zr2668     O2672   2.372       .  S
Zr2668     O2671   2.374       .  S
Zr2668     O2696   2.368       .  S
Zr2668     O2698   2.370       .  S
O2669      H2710   0.990       .  S
O2669      H2713   0.990       .  S
O2670      H2703   0.990       .  S
O2671     Zr2923   2.374       .  S
O2671     Zr2691   2.381       .  S
O2672     Zr2923   2.370       .  S
O2672     Zr2692   2.383       .  S
O2672      H2699   0.966       .  S
O2673     Zr2685   2.444       .  S
O2673      C2675   1.288       .  A
O2674      C2675   1.285       .  A
O2676     Zr2688   2.447       .  S
O2676      C2678   1.288       .  A
O2677     Zr2691   2.427       .  S
O2677      C2678   1.287       .  A
O2679     Zr2688   2.447       .  S
O2679      C2681   1.288       .  A
O2680     Zr2692   2.425       .  S
O2680      C2681   1.286       .  A
O2682     Zr2685   2.442       .  S
O2682      C2684   1.287       .  A
O2683      C2684   1.286       .  A
Zr2685     O2686   2.437       .  S
Zr2685     O2687   2.429       .  S
Zr2685     O2697   2.368       .  S
Zr2685     O2695   2.371       .  S
O2686      H2706   0.990       .  S
O2686      H2711   0.990       .  S
O2687      H2707   0.990       .  S
Zr2688     O2689   2.433       .  S
Zr2688     O2690   2.430       .  S
Zr2688     O2694   2.375       .  S
Zr2688     O2693   2.371       .  S
Zr2688     O2698   2.371       .  S
Zr2688     O2696   2.369       .  S
O2689      H2705   0.990       .  S
O2690      H2704   0.990       .  S
O2690      H2714   0.990       .  S
Zr2691     O2912   2.432       .  S
Zr2691     O2941   2.424       .  S
Zr2691     O2694   2.383       .  S
Zr2691     O2696   2.385       .  S
Zr2691     O2955   2.383       .  S
Zr2692     O2921   2.424       .  S
Zr2692     O2932   2.422       .  S
Zr2692     O2693   2.383       .  S
Zr2692     O2953   2.382       .  S
Zr2692     O2698   2.380       .  S
O2693     Zr2943   2.373       .  S
O2693      H2701   0.966       .  S
O2694     Zr2943   2.375       .  S
O2696      H2700   0.966       .  S
O2697      H2702   0.966       .  S
O2715      C2717   1.287       .  A
O2716     Zr2753   2.428       .  S
O2716      C2717   1.287       .  A
O2718     Zr2730   2.444       .  S
O2718      C2720   1.288       .  A
O2719      C2720   1.285       .  A
O2721      C2723   1.288       .  A
O2722      C2723   1.287       .  A
O2724     Zr2727   2.443       .  S
O2724      C2726   1.288       .  A
O2725     Zr2754   2.420       .  S
O2725      C2726   1.285       .  A
Zr2727     O2728   2.434       .  S
Zr2727     O2729   2.431       .  S
Zr2727     O2734   2.371       .  S
Zr2727     O2757   2.371       .  S
O2729      H2774   0.990       .  S
Zr2730     O2731   2.435       .  S
Zr2730     O2732   2.428       .  S
Zr2730     O2760   2.371       .  S
O2731      H2772   0.990       .  S
O2731      H2775   0.990       .  S
O2733     Zr2753   2.383       .  S
O2734     Zr2988   2.373       .  S
O2734     Zr2754   2.382       .  S
O2734      H2761   0.966       .  S
O2735     Zr2747   2.444       .  S
O2735      C2737   1.288       .  A
O2736     Zr2754   2.421       .  S
O2736      C2737   1.285       .  A
O2738      C2740   1.288       .  A
O2739      C2740   1.287       .  A
O2741     Zr2750   2.445       .  S
O2741      C2743   1.288       .  A
O2742      C2743   1.285       .  A
O2744      C2746   1.288       .  A
O2745     Zr2753   2.425       .  S
O2745      C2746   1.286       .  A
Zr2747     O2748   2.436       .  S
Zr2747     O2749   2.426       .  S
Zr2747     O2755   2.372       .  S
Zr2747     O2757   2.370       .  S
O2748      H2768   0.990       .  S
O2748      H2773   0.990       .  S
O2749      H2769   0.990       .  S
Zr2750     O2751   2.433       .  S
Zr2750     O2752   2.431       .  S
Zr2750     O2760   2.370       .  S
O2752      H2766   0.990       .  S
O2752      H2776   0.990       .  S
Zr2753     O2980   2.427       .  S
Zr2753     O2997   2.429       .  S
Zr2753     O2756   2.383       .  S
Zr2753     O3016   2.385       .  S
Zr2753     O2759   2.384       .  S
Zr2754     O2977   2.421       .  S
Zr2754     O3000   2.419       .  S
Zr2754     O2755   2.383       .  S
Zr2754     O2757   2.380       .  S
Zr2754     O3018   2.381       .  S
O2755     Zr3008   2.370       .  S
O2755      H2763   0.966       .  S
O2758      H2762   0.966       .  S
O2759      H2764   0.966       .  S
O2777     Zr2789   2.446       .  S
O2777      C2779   1.288       .  A
O2778     Zr2815   2.426       .  S
O2778      C2779   1.287       .  A
O2780      C2782   1.287       .  A
O2781      C2782   1.285       .  A
O2783     Zr2792   2.443       .  S
O2783      C2785   1.288       .  A
O2784      C2785   1.286       .  A
O2786      C2788   1.289       .  A
O2787     Zr2816   2.424       .  S
O2787      C2788   1.286       .  A
Zr2789     O2790   2.434       .  S
Zr2789     O2795   2.376       .  S
Zr2789     O2821   2.370       .  S
O2790      H2833   0.990       .  S
Zr2792     O2793   2.435       .  S
Zr2792     O2820   2.367       .  S
O2793      H2837   0.990       .  S
O2795     Zr3050   2.373       .  S
O2795     Zr2815   2.384       .  S
O2796     Zr2816   2.382       .  S
O2796      H2823   0.966       .  S
O2797      C2799   1.288       .  A
O2798     Zr2816   2.420       .  S
O2798      C2799   1.285       .  A
O2800     Zr2812   2.439       .  S
O2800      C2802   1.287       .  A
O2801      C2802   1.287       .  A
O2803      C2805   1.287       .  A
O2804      C2805   1.285       .  A
O2806     Zr2809   2.441       .  S
O2806      C2808   1.287       .  A
O2807     Zr2815   2.432       .  S
O2807      C2808   1.288       .  A
Zr2809     O2810   2.435       .  S
Zr2809     O2811   2.427       .  S
Zr2809     O2818   2.374       .  S
Zr2809     O2821   2.366       .  S
O2810      H2835   0.990       .  S
Zr2812     O2813   2.435       .  S
Zr2812     O2814   2.429       .  S
Zr2812     O2820   2.367       .  S
O2813      H2829   0.990       .  S
O2814      H2838   0.990   1_565  S
Zr2815     O3042   2.427       .  S
Zr2815     O3059   2.430       .  S
Zr2815     O2818   2.380       .  S
Zr2815     O3078   2.384       .  S
Zr2815     O2821   2.384       .  S
Zr2816     O3039   2.418       .  S
Zr2816     O3062   2.419       .  S
Zr2816     O2817   2.383       .  S
Zr2816     O2819   2.379       .  S
Zr2816     O3080   2.382       .  S
O2817      H2825   0.966       .  S
O2818     Zr3070   2.374       .  S
O2820      H2824   0.966       .  S
O2821      H2826   0.966       .  S
C2839      N2840   1.358       .  A
C2839      N2844   1.360       .  A
C2839      C2913   1.467       .  S
N2840      C2841   1.358       .  A
C2841      N2842   1.359       .  A
C2841      C3043   1.465       .  S
N2842      C2843   1.359       .  A
C2843      N2844   1.360       .  A
C2843      C2849   1.474       .  S
C2845      N2846   1.357       .  A
C2845      N2850   1.359       .  A
C2845      C2919   1.464       .  S
N2846      C2847   1.357       .  A
C2847      N2848   1.359       .  A
C2847      C3037   1.465       .  S
N2848      C2849   1.360       .  A
C2849      N2850   1.359       .  A
C2851      N2852   1.360       .  A
C2851      N2856   1.358       .  A
C2851      C3066   1.467       .  S
N2852      C2853   1.360       .  A
C2853      N2854   1.360       .  A
C2853      C2859   1.475       .  S
N2854      C2855   1.360       .  A
C2855      N2856   1.358       .  A
C2855      C2975   1.466       .  S
C2857      N2858   1.360       .  A
C2857      N2862   1.358       .  A
C2857      C3060   1.465       .  S
N2858      C2859   1.360       .  A
C2859      N2860   1.360       .  A
N2860      C2861   1.359       .  A
C2861      N2862   1.358       .  A
C2861      C2981   1.467       .  S
C2863      N2864   1.360       .  A
C2863      N2868   1.358       .  A
C2863      C2998   1.467       .  S
N2864      C2865   1.360       .  A
C2865      N2866   1.359       .  A
C2865      C2873   1.475       .  S
N2866      C2867   1.359       .  A
C2867      N2868   1.358       .  A
C2867      C2942   1.464       .  S
C2869      N2870   1.358       .  A
C2869      N2874   1.359       .  A
C2869      C3004   1.465       .  S
N2870      C2871   1.358       .  A
C2871      N2872   1.360       .  A
C2871      C2936   1.468       .  S
N2872      C2873   1.361       .  A
C2873      N2874   1.359       .  A
C2875      N2876   1.357       .  A
C2875      N2880   1.359       .  A
C2875      C2995   1.464       .  S
N2876      C2877   1.358       .  A
C2877      N2878   1.359       .  A
C2877      C2885   1.467       .  S
N2878      C2879   1.358       .  A
C2879      N2880   1.359       .  A
C2879      C3046   1.467       .  S
C2881      N2882   1.358       .  A
C2881      N2886   1.358       .  A
C2881      C3001   1.463       .  S
N2882      C2883   1.358       .  A
C2883      N2884   1.356       .  A
C2883      C3040   1.461       .  S
N2884      C2885   1.357       .  A
C2885      N2886   1.358       .  A
C2887      N2888   1.359       .  A
C2887      N2892   1.357       .  A
C2887      C2922   1.464       .  S
N2888      C2889   1.358       .  A
C2889      N2890   1.357       .  A
C2889      C2978   1.464       .  S
N2890      C2891   1.358       .  A
C2891      N2892   1.358       .  A
C2891      C2897   1.467       .  S
C2893      N2894   1.358       .  A
C2893      N2898   1.357       .  A
C2893      C2916   1.463       .  S
N2894      C2895   1.358       .  A
C2895      N2896   1.357       .  A
C2895      C2984   1.463       .  S
N2896      C2897   1.358       .  A
C2897      N2898   1.358       .  A
C2899      N2900   1.359       .  A
C2899      N2904   1.357       .  A
C2899      C3057   1.464       .  S
N2900      C2901   1.359       .  A
C2901      N2902   1.358       .  A
C2901      C2939   1.467       .  S
N2902      C2903   1.359       .  A
C2903      N2904   1.358       .  A
C2903      C2909   1.468       .  S
C2905      N2906   1.358       .  A
C2905      N2910   1.357       .  A
C2905      C3063   1.462       .  S
N2906      C2907   1.358       .  A
C2907      N2908   1.357       .  A
C2907      C2933   1.464       .  S
N2908      C2909   1.358       .  A
C2909      N2910   1.358       .  A
O2911     Zr2923   2.443       .  S
O2911      C2913   1.287       .  A
O2912      C2913   1.287       .  A
O2914     Zr2926   2.443       .  S
O2914      C2916   1.288       .  A
O2915     Zr2950   2.419       .  S
O2915      C2916   1.285       .  A
O2917     Zr2926   2.443       .  S
O2917      C2919   1.288       .  A
O2918     Zr2949   2.425       .  S
O2918      C2919   1.286       .  A
O2920     Zr2923   2.442       .  S
O2920      C2922   1.288       .  A
O2921      C2922   1.285       .  A
Zr2923     O2924   2.435       .  S
Zr2923     O2925   2.431       .  S
Zr2923     O2953   2.372       .  S
Zr2923     O2955   2.368       .  S
O2924      H2967   0.990       .  S
O2925      H2966   0.990       .  S
O2925      H2970   0.990       .  S
Zr2926     O2927   2.438       .  S
Zr2926     O2928   2.429       .  S
Zr2926     O2930   2.372       .  S
Zr2926     O2929   2.374       .  S
Zr2926     O2954   2.368       .  S
Zr2926     O2956   2.370       .  S
O2927      H2968   0.990       .  S
O2927      H2971   0.990       .  S
O2928      H2961   0.990       .  S
O2929     Zr2949   2.381       .  S
O2930     Zr2950   2.383       .  S
O2930      H2957   0.966       .  S
O2931     Zr2943   2.444       .  S
O2931      C2933   1.288       .  A
O2932      C2933   1.285       .  A
O2934     Zr2946   2.447       .  S
O2934      C2936   1.288       .  A
O2935     Zr2949   2.427       .  S
O2935      C2936   1.287       .  A
O2937     Zr2946   2.447       .  S
O2937      C2939   1.288       .  A
O2938     Zr2950   2.425       .  S
O2938      C2939   1.286       .  A
O2940     Zr2943   2.442       .  S
O2940      C2942   1.287       .  A
O2941      C2942   1.286       .  A
Zr2943     O2944   2.437       .  S
Zr2943     O2945   2.429       .  S
Zr2943     O2955   2.368       .  S
Zr2943     O2953   2.371       .  S
O2944      H2964   0.990       .  S
O2944      H2969   0.990       .  S
O2945      H2965   0.990       .  S
Zr2946     O2947   2.433       .  S
Zr2946     O2948   2.430       .  S
Zr2946     O2952   2.375       .  S
Zr2946     O2951   2.371       .  S
Zr2946     O2956   2.371       .  S
Zr2946     O2954   2.369       .  S
O2947      H2963   0.990       .  S
O2948      H2962   0.990       .  S
O2948      H2972   0.990       .  S
Zr2949     O2952   2.383       .  S
Zr2949     O2954   2.385       .  S
Zr2950     O2951   2.383       .  S
Zr2950     O2956   2.380       .  S
O2951      H2959   0.966       .  S
O2954      H2958   0.966       .  S
O2955      H2960   0.966       .  S
O2973      C2975   1.287       .  A
O2974     Zr3011   2.428       .  S
O2974      C2975   1.287       .  A
O2976     Zr2988   2.444       .  S
O2976      C2978   1.288       .  A
O2977      C2978   1.285       .  A
O2979      C2981   1.288       .  A
O2980      C2981   1.287       .  A
O2982     Zr2985   2.443       .  S
O2982      C2984   1.288       .  A
O2983     Zr3012   2.420       .  S
O2983      C2984   1.285       .  A
Zr2985     O2986   2.434       .  S
Zr2985     O2987   2.431       .  S
Zr2985     O2992   2.371       .  S
Zr2985     O3015   2.371       .  S
O2987      H3032   0.990       .  S
Zr2988     O2989   2.435       .  S
Zr2988     O2990   2.428       .  S
Zr2988     O3018   2.371       .  S
O2989      H3030   0.990       .  S
O2989      H3033   0.990       .  S
O2991     Zr3011   2.383       .  S
O2992     Zr3012   2.382       .  S
O2992      H3019   0.966       .  S
O2993     Zr3005   2.444       .  S
O2993      C2995   1.288       .  A
O2994     Zr3012   2.421       .  S
O2994      C2995   1.285       .  A
O2996      C2998   1.288       .  A
O2997      C2998   1.287       .  A
O2999     Zr3008   2.445       .  S
O2999      C3001   1.288       .  A
O3000      C3001   1.285       .  A
O3002      C3004   1.288       .  A
O3003     Zr3011   2.425       .  S
O3003      C3004   1.286       .  A
Zr3005     O3006   2.436       .  S
Zr3005     O3007   2.426       .  S
Zr3005     O3013   2.372       .  S
Zr3005     O3015   2.370       .  S
O3006      H3026   0.990       .  S
O3006      H3031   0.990       .  S
O3007      H3027   0.990       .  S
Zr3008     O3009   2.433       .  S
Zr3008     O3010   2.431       .  S
Zr3008     O3018   2.370       .  S
O3010      H3024   0.990       .  S
O3010      H3034   0.990       .  S
Zr3011     O3014   2.383       .  S
Zr3011     O3017   2.384       .  S
Zr3012     O3013   2.383       .  S
Zr3012     O3015   2.380       .  S
O3013      H3021   0.966       .  S
O3016      H3020   0.966       .  S
O3017      H3022   0.966       .  S
O3035     Zr3047   2.446       .  S
O3035      C3037   1.288       .  A
O3036     Zr3073   2.426       .  S
O3036      C3037   1.287       .  A
O3038      C3040   1.287       .  A
O3039      C3040   1.285       .  A
O3041     Zr3050   2.443       .  S
O3041      C3043   1.288       .  A
O3042      C3043   1.286       .  A
O3044      C3046   1.289       .  A
O3045     Zr3074   2.424       .  S
O3045      C3046   1.286       .  A
Zr3047     O3048   2.434       .  S
Zr3047     O3053   2.376       .  S
Zr3047     O3079   2.370       .  S
O3048      H3091   0.990       .  S
Zr3050     O3051   2.435       .  S
Zr3050     O3078   2.367       .  S
O3051      H3095   0.990       .  S
O3053     Zr3073   2.384       .  S
O3054     Zr3074   2.382       .  S
O3054      H3081   0.966       .  S
O3055      C3057   1.288       .  A
O3056     Zr3074   2.420       .  S
O3056      C3057   1.285       .  A
O3058     Zr3070   2.439       .  S
O3058      C3060   1.287       .  A
O3059      C3060   1.287       .  A
O3061      C3063   1.287       .  A
O3062      C3063   1.285       .  A
O3064     Zr3067   2.441       .  S
O3064      C3066   1.287       .  A
O3065     Zr3073   2.432       .  S
O3065      C3066   1.288       .  A
Zr3067     O3068   2.435       .  S
Zr3067     O3069   2.427       .  S
Zr3067     O3076   2.374       .  S
Zr3067     O3079   2.366       .  S
O3068      H3093   0.990       .  S
Zr3070     O3071   2.435       .  S
Zr3070     O3072   2.429       .  S
Zr3070     O3078   2.367       .  S
O3071      H3087   0.990       .  S
O3072      H3096   0.990   1_565  S
Zr3073     O3076   2.380       .  S
Zr3073     O3079   2.384       .  S
Zr3074     O3075   2.383       .  S
Zr3074     O3077   2.379       .  S
O3075      H3083   0.966       .  S
O3078      H3082   0.966       .  S
O3079      H3084   0.966       .  S
