geometry optimzed in LAMMPS
_audit_creation_date              2020-12-01 
_audit_creation_method            'lammps2cif' 
_symmetry_space_group_name_H-M    'P1' 
_symmetry_Int_Tables_number       1 
_symmetry_cell_setting            triclinic 
loop_ 
_symmetry_equiv_pos_as_xyz 
  x,y,z 
_cell_length_a                    39.01117362 
_cell_length_b                    37.92115742130731 
_cell_length_c                    25.942325331271395 
_cell_angle_alpha                 90.38031732277189 
_cell_angle_beta                  89.49384084811486 
_cell_angle_gamma                 120.94604853969867 
loop_ 
_atom_site_label 
_atom_site_type_symbol 
_atom_site_fract_x 
_atom_site_fract_y 
_atom_site_fract_z 
_atom_site_charge 
Fe1        Fe  0.15051193  0.29357415  0.23995469     1.65800
Fe2        Fe  0.14178120  0.20184476  0.26917788     1.72200
Fe3        Fe  0.05841531  0.20766394  0.24741999     1.54400
O4          O  0.05793935  0.24537084  0.30501944    -0.80600
O5          O  0.10125809  0.15370725  0.22310453    -0.78900
O6          O  0.11516502  0.30464600  0.28915215    -0.83100
O7          O  0.11982015  0.29437533  0.17614340    -0.78000
O8          O  0.04667224  0.16395282  0.30240153    -0.79700
O9          O  0.18202641  0.22559621  0.20752959    -0.82500
C10         C  0.08273772  0.27902549  0.16967807     0.98300
C11         C  0.08226721  0.28342976  0.31345490     1.05700
O12         O  0.11714029  0.23445615  0.25197625    -1.11500
O13         O  0.18553200  0.24561900  0.31830862    -0.73900
O14         O  0.18679033  0.30367044  0.30169693    -0.77400
O15         O  0.05705221  0.24702222  0.19332282    -0.78100
C16         C  0.19932966  0.28376666  0.32586479     0.97200
O17         O  0.18915816  0.28687051  0.19123013    -0.76000
O18         O  0.10421938  0.17395017  0.33237350    -0.81200
C19         C  0.07184316  0.14505476  0.19396701     0.99800
C20         C  0.06624731  0.15601113  0.33397037     1.05700
O21         O  0.05649464  0.16766208  0.19030688    -0.76900
C22         C  0.19859973  0.25968072  0.18344966     1.04000
C23         C  0.02267683  0.05037598  0.10296612     0.87600
C24         C  0.04415379  0.02774896  0.11895598    -0.52700
C25         C  0.02101606  0.32287294  0.11483777     0.10500
C26         C  0.31483858  0.30901542  0.07323377     0.21400
C27         C  0.01612673  0.04258597  0.04498839    -0.53400
C28         C  0.33205076  0.33825083  0.02568250     0.10600
C29         C  0.31549594  0.02278275  0.12364180    -0.52900
C30         C  0.29351968  0.32666441  0.10555744     0.11100
H31         H  0.07146736  0.04251734  0.14130335     0.15700
H32         H  0.29517657  0.27594783  0.06406626     0.01400
H33         H  0.02639218  0.06774042  0.01806831     0.16000
H34         H  0.30301327  0.03417970  0.15224700     0.15800
C35         C  0.02414290  0.05066251  0.39826348     0.87600
C36         C  0.32526180  0.03368128  0.38125131    -0.52700
C37         C  0.29906395  0.32684885  0.39766145     0.10500
C38         C  0.32419855  0.31296748  0.42703866     0.21400
C39         C  0.01892879  0.04508583  0.45666460    -0.53400
C40         C  0.34110329  0.34252500  0.47421867     0.10600
C41         C  0.03982893  0.02293501  0.38125381    -0.52900
C42         C  0.02679283  0.32347280  0.39300488     0.11100
H43         H  0.31359651  0.04695212  0.35479289     0.15700
H44         H  0.30721075  0.27972493  0.43619920     0.01400
H45         H  0.03374780  0.07107211  0.48259426     0.16000
H46         H  0.06615395  0.03389362  0.35685945     0.15800
Fe47       Fe  0.17927975  0.03542959  0.74729460     1.65800
Fe48       Fe  0.17170901  0.12076814  0.75563121     1.73200
Fe49       Fe  0.26467807  0.13006962  0.74910293     1.54400
O50         O  0.27182766  0.09324138  0.80337747    -0.80600
O51         O  0.20624362  0.16655211  0.70375590    -0.78900
O52         O  0.21335907  0.03389286  0.80526710    -0.83100
O53         O  0.21684879  0.03646906  0.69184714    -0.78000
O54         O  0.26530671  0.16693934  0.80931624    -0.79700
O55         O  0.13615737  0.08621249  0.69425656    -0.82500
C56         C  0.25031088  0.06142796  0.67214087     0.98300
C57         C  0.24868701  0.05712512  0.82106321     1.05700
O58         O  0.20532598  0.09560052  0.75088010    -1.11500
O59         O  0.13103265  0.07895499  0.80830550    -0.73900
O60         O  0.13622955  0.02357423  0.80133039    -0.77400
O61         O  0.27191936  0.09816258  0.68806351    -0.78100
C62         C  0.11998332  0.04221542  0.82008434     0.97200
O63         O  0.14324593  0.03148418  0.68872721    -0.76000
O64         O  0.20420559  0.15816048  0.81679162    -0.81200
C65         C  0.24071307  0.18254177  0.68357173     0.99800
C66         C  0.24045839  0.17487423  0.83072054     1.05700
O67         O  0.26520413  0.17101719  0.69474982    -0.76900
C68         C  0.12888958  0.05267564  0.67314117     1.04000
C69         C  0.30999599  0.27823986  0.89691085     0.87600
C70         C  0.01612026  0.29565395  0.89038718    -0.52700
C71         C  0.02114532  0.00254368  0.89325042     0.10500
C72         C  0.99960547  0.01672340  0.92997424     0.21400
C73         C  0.30883823  0.28411357  0.95540235    -0.53400
C74         C  0.98663205  0.98714784  0.97671152     0.10600
C75         C  0.28923219  0.29930278  0.87309135    -0.52900
C76         C  0.30897833  0.01861704  0.88987915     0.11100
H77         H  0.02905658  0.28180067  0.86646822     0.15700
H78         H  0.01789731  0.04997938  0.93859311     0.01400
H79         H  0.29764608  0.25860377  0.98205559     0.16000
H80         H  0.26582695  0.28405249  0.84466031     0.15800
C81         C  0.30678065  0.28238128  0.60376439     0.87600
C82         C  0.28671307  0.30687810  0.61989102    -0.52700
C83         C  0.30913687  0.02158150  0.60464229     0.10500
C84         C  0.00590208  0.02373249  0.57342634     0.21400
C85         C  0.31276313  0.28847631  0.54502631    -0.53400
C86         C  0.98866464  0.99257085  0.52785908     0.10600
C87         C  0.01375895  0.29139308  0.61109204    -0.52900
C88         C  0.03372476  0.01304557  0.60110688     0.11100
H89         H  0.26046727  0.29510179  0.64431837     0.15700
H90         H  0.02079607  0.05671088  0.56331496     0.01400
H91         H  0.30150351  0.26268290  0.51865044     0.16000
H92         H  0.02374455  0.27259849  0.62954030     0.15800
C93         C  0.25469100  0.20758080  0.87068853    -0.15400
C94         C  0.29394365  0.23465403  0.87718774    -0.30500
H95         H  0.23304444  0.21428664  0.88751013     0.13700
H96         H  0.31519425  0.22800760  0.85891105     0.14200
C97         C  0.06092672  0.03128362  0.87037237    -0.15400
C98         C  0.08527674  0.01816607  0.85424958    -0.30500
H99         H  0.06922941  0.06306596  0.86461991     0.13700
H100        H  0.07727920  0.98671434  0.86217949     0.14200
C101        C  0.30004212  0.04964554  0.86927246    -0.15400
C102        C  0.26191071  0.03832582  0.85980609    -0.30500
H103        H  0.32451779  0.07901933  0.85590792     0.13700
H104        H  0.23847622  0.00902579  0.87515588     0.14200
C105        C  0.25250568  0.21800842  0.64877563    -0.15400
C106        C  0.28746941  0.23796535  0.62280532    -0.30500
H107        H  0.23237798  0.22968023  0.64837486     0.13700
H108        H  0.30566035  0.22387819  0.62053196     0.14200
C109        C  0.07285359  0.04451157  0.62165842    -0.15400
C110        C  0.10051209  0.03464872  0.63075415    -0.30500
H111        H  0.07582785  0.07262018  0.63720577     0.13700
H112        H  0.09712585  0.00678673  0.61355577     0.14200
C113        C  0.26325723  0.04428459  0.63052901    -0.15400
C114        C  0.30112204  0.05364130  0.62400224    -0.30500
H115        H  0.23967215  0.01623037  0.61282092     0.13700
H116        H  0.32560348  0.08145936  0.64074221     0.14200
C117        C  0.03579664  0.29337285  0.36922323    -0.15400
C118        C  0.07289358  0.30570941  0.35202502    -0.30500
H119        H  0.01117146  0.26258850  0.36092888     0.13700
H120        H  0.09749076  0.33599767  0.36232773     0.14200
C121        C  0.23305457  0.30823983  0.36137149    -0.15400
C122        C  0.25866223  0.29673880  0.37687358    -0.30500
H123        H  0.24012089  0.33943804  0.36914646     0.13700
H124        H  0.25154880  0.26538347  0.37030312     0.14200
C125        C  0.04250972  0.12209803  0.37058874    -0.15400
C126        C  0.05310071  0.09437553  0.38029614    -0.30500
H127        H  0.01244014  0.11491819  0.38024011     0.13700
H128        H  0.08242713  0.10133774  0.36681498     0.14200
C129        C  0.03150773  0.29279954  0.13445263    -0.15400
C130        C  0.06979797  0.30207598  0.13718002    -0.30500
H131        H  0.00749926  0.26361177  0.14901194     0.13700
H132        H  0.09315342  0.33081749  0.12059660     0.14200
C133        C  0.25102881  0.30546750  0.12213760    -0.15400
C134        C  0.23261600  0.26963802  0.14787919    -0.30500
H135        H  0.23763336  0.32449520  0.12293299     0.13700
H136        H  0.24622021  0.25084807  0.14918200     0.14200
C137        C  0.05217565  0.10392534  0.17033797    -0.15400
C138        C  0.04376806  0.09512396  0.12011142    -0.30500
H139        H  0.04563410  0.07896299  0.19659023     0.13700
H140        H  0.05164985  0.11952749  0.09241453     0.14200
Fe141      Fe  0.15635629  0.63303821  0.25184190     1.65800
Fe142      Fe  0.15347271  0.54256304  0.26207015     1.72200
Fe143      Fe  0.06738327  0.54476101  0.24027547     1.54400
O144        O  0.06159929  0.58274527  0.29498996    -0.80600
O145        O  0.12310949  0.50212501  0.20362161    -0.78900
O146        O  0.12378962  0.63411211  0.31238019    -0.83100
O147        O  0.12203833  0.64143350  0.20074626    -0.78000
O148        O  0.05589838  0.50436055  0.29891473    -0.79700
O149        O  0.19772521  0.57949738  0.20696498    -0.82500
C150        C  0.09165044  0.61986665  0.17369886     0.98300
C151        C  0.08660857  0.61389143  0.32162086     1.05700
O152        O  0.12554746  0.57301598  0.25140040    -1.11500
O153        O  0.18875851  0.57849669  0.32278510    -0.73900
O154        O  0.19810829  0.63943290  0.30307218    -0.77400
O155        O  0.06990430  0.58132511  0.17933015    -0.78100
C156        C  0.20616017  0.61699557  0.32936600     0.97200
O157        O  0.18940066  0.63280044  0.19141496    -0.76000
O158        O  0.11085367  0.50238033  0.31653496    -0.81200
C159        C  0.09119110  0.48962592  0.17860072     0.99800
C160        C  0.07402579  0.49055824  0.32425217     1.05700
O161        O  0.06779204  0.50342327  0.18627082    -0.76900
C162        C  0.20503500  0.61141322  0.18119592     1.04000
C163        C  0.02582050  0.38928028  0.10292627     0.87600
C164        C  0.04254180  0.36387944  0.12660785    -0.52700
C165        C  0.03384768  0.65831512  0.09850589     0.10500
C166        C  0.32525632  0.64013517  0.06751914     0.21400
C167        C  0.02306361  0.37977239  0.04497387    -0.53400
C168        C  0.33692448  0.67051331  0.02152996     0.10600
C169        C  0.31746596  0.36709007  0.11746132    -0.52900
C170        C  0.29991935  0.64974574  0.10396398     0.11100
H171        H  0.06821206  0.37630848  0.15177970     0.15700
H172        H  0.31029164  0.60707959  0.05747953     0.01400
H173        H  0.03740445  0.40409362  0.01675272     0.16000
H174        H  0.30681539  0.38409381  0.13952027     0.15800
C175        C  0.03163096  0.38982553  0.40231841     0.87600
C176        C  0.32004347  0.36785479  0.38490013    -0.52700
C177        C  0.30471697  0.65814492  0.39844713     0.10500
C178        C  0.33020770  0.64518004  0.42777313     0.21400
C179        C  0.02695756  0.38139515  0.46049481    -0.53400
C180        C  0.34451106  0.67299269  0.47616427     0.10600
C181        C  0.04848873  0.36425034  0.38129351    -0.52900
C182        C  0.02880504  0.65203139  0.39585450     0.11100
H183        H  0.30749231  0.38158367  0.36086063     0.15700
H184        H  0.31453424  0.61164465  0.43482365     0.01400
H185        H  0.04027098  0.40618703  0.48836501     0.16000
H186        H  0.07441472  0.37754939  0.35592487     0.15800
Fe187      Fe  0.17942068  0.36919014  0.73752351     1.65800
Fe188      Fe  0.18261837  0.45821421  0.76230543     1.73200
Fe189      Fe  0.26828386  0.45580465  0.75178456     1.54400
O190        O  0.26752763  0.41735310  0.80931145    -0.80600
O191        O  0.22562847  0.50871074  0.72175741    -0.78900
O192        O  0.21779928  0.35789980  0.77868236    -0.83100
O193        O  0.20941106  0.37487907  0.67021003    -0.78000
O194        O  0.27364675  0.49902373  0.80734093    -0.79700
O195        O  0.15019161  0.43681431  0.69531713    -0.82500
C196        C  0.24655831  0.38906969  0.66637359     0.98300
C197        C  0.24759275  0.37815139  0.80806091     1.05700
O198        O  0.21007620  0.42779778  0.75071312    -1.11500
O199        O  0.13677646  0.41154011  0.80525489    -0.73900
O200        O  0.14772188  0.35932435  0.80411821    -0.77400
O201        O  0.27163921  0.41717961  0.69626634    -0.78100
C202        C  0.13013743  0.37705793  0.82176335     0.97200
O203        O  0.13671722  0.37228274  0.69475135    -0.76000
O204        O  0.21219740  0.48292586  0.83014352    -0.81200
C205        C  0.25601064  0.51685497  0.69442837     0.99800
C206        C  0.24968449  0.50451966  0.83539539     1.05700
O207        O  0.27191038  0.49481406  0.69386163    -0.76900
C208        C  0.13099946  0.40032870  0.67834256     1.04000
C209        C  0.31943833  0.61278372  0.89153271     0.87600
C210        C  0.03308665  0.64243049  0.87673273    -0.52700
C211        C  0.03529129  0.33668004  0.90094580     0.10500
C212        C  0.00954314  0.34965071  0.93077463     0.21400
C213        C  0.31667207  0.61777518  0.94989925    -0.53400
C214        C  0.99483915  0.32192028  0.97923493     0.10600
C215        C  0.29962567  0.63466272  0.86708114    -0.52900
C216        C  0.30503828  0.33951832  0.88741753     0.11100
H217        H  0.04953455  0.63202709  0.85354781     0.15700
H218        H  0.02527446  0.38320599  0.93775304     0.01400
H219        H  0.30366806  0.59159078  0.97555624     0.16000
H220        H  0.27643268  0.62001913  0.83821497     0.15800
C221        C  0.30714642  0.60705585  0.59997267     0.87600
C222        C  0.29344155  0.63549584  0.62166326    -0.52700
C223        C  0.30748788  0.34724744  0.60539015     0.10500
C224        C  0.01868666  0.35284870  0.57532266     0.21400
C225        C  0.31151853  0.61566620  0.54184501    -0.53400
C226        C  0.99648606  0.32517006  0.52795669     0.10600
C227        C  0.01779815  0.62650012  0.61623116    -0.52900
C228        C  0.03904239  0.33171352  0.60036342     0.11100
H229        H  0.26641237  0.62437291  0.64467504     0.15700
H230        H  0.03973941  0.38572237  0.56692120     0.01400
H231        H  0.29530940  0.59152640  0.51379966     0.16000
H232        H  0.02819259  0.60835929  0.63550331     0.15800
C233        C  0.26532301  0.53980322  0.87175251    -0.15400
C234        C  0.30398675  0.56955815  0.87107729    -0.30500
H235        H  0.24401734  0.54497898  0.89263490     0.13700
H236        H  0.32477434  0.56398683  0.84950266     0.14200
C237        C  0.07386138  0.36641118  0.87673067    -0.15400
C238        C  0.09922243  0.35463230  0.86076690    -0.30500
H239        H  0.07916851  0.39666034  0.86713135     0.13700
H240        H  0.09465809  0.32508339  0.87257479     0.14200
C241        C  0.29329707  0.36766120  0.86421979    -0.15400
C242        C  0.25828923  0.35321769  0.83997896    -0.30500
H243        H  0.31458761  0.40051573  0.86521850     0.13700
H244        H  0.23669582  0.32047092  0.84035946     0.14200
C245        C  0.27676657  0.55681163  0.66928658    -0.15400
C246        C  0.28109077  0.56320052  0.61806913    -0.30500
H247        H  0.28964003  0.58303100  0.69537376     0.13700
H248        H  0.26755347  0.53776197  0.59092863     0.14200
C249        C  0.08053906  0.35182873  0.61861721    -0.15400
C250        C  0.09880547  0.38911812  0.64074993    -0.30500
H251        H  0.09286394  0.33207679  0.62373380     0.13700
H252        H  0.08653125  0.40900117  0.63718612     0.14200
C253        C  0.25950183  0.36819908  0.62980753    -0.15400
C254        C  0.29757905  0.37768498  0.62532201    -0.30500
H255        H  0.23616937  0.34018341  0.61175703     0.13700
H256        H  0.32162255  0.40631189  0.64110456     0.14200
C257        C  0.03589500  0.62086995  0.37169489    -0.15400
C258        C  0.07363516  0.63048367  0.36362540    -0.30500
H259        H  0.01106295  0.59394175  0.35388258     0.13700
H260        H  0.09739823  0.65700393  0.38372666     0.14200
C261        C  0.23820749  0.63871064  0.36703584    -0.15400
C262        C  0.26497433  0.62777586  0.37742448    -0.30500
H263        H  0.24416383  0.66881596  0.37920606     0.13700
H264        H  0.25947708  0.59770663  0.36598714     0.14200
C265        C  0.04838061  0.45703821  0.36072345    -0.15400
C266        C  0.06011224  0.43460400  0.38660368    -0.30500
H267        H  0.01702288  0.44752077  0.36075280     0.13700
H268        H  0.09196537  0.44614222  0.38929330     0.14200
C269        C  0.04503876  0.62931129  0.11964318    -0.15400
C270        C  0.08201272  0.64261250  0.13664842    -0.30500
H271        H  0.02151417  0.59757650  0.12584909     0.13700
H272        H  0.10540540  0.67421315  0.12929043     0.14200
C273        C  0.26255571  0.61845197  0.12981180    -0.15400
C274        C  0.23418218  0.62760326  0.13865260    -0.30500
H275        H  0.26139576  0.59210755  0.14786437     0.13700
H276        H  0.23647288  0.65382893  0.11846378     0.14200
C277        C  0.08072525  0.45501370  0.14271124    -0.15400
C278        C  0.04604010  0.43477157  0.11725458    -0.30500
H279        H  0.10039054  0.44271741  0.14304249     0.13700
H280        H  0.02804873  0.44904493  0.11448697     0.14200
Fe281      Fe  0.14860982  0.96356673  0.25655532     1.65800
Fe282      Fe  0.14693799  0.87298274  0.26208868     1.72200
Fe283      Fe  0.05900985  0.87366087  0.24984268     1.54400
O284        O  0.05288490  0.90881697  0.30738056    -0.80600
O285        O  0.10799782  0.82575506  0.21343626    -0.78900
O286        O  0.11229688  0.96680533  0.31125906    -0.83100
O287        O  0.11738753  0.96907008  0.19772682    -0.78000
O288        O  0.05171618  0.83223841  0.30646210    -0.79700
O289        O  0.18514636  0.90507191  0.19945004    -0.82500
C290        C  0.08310315  0.94803040  0.17832325     0.98300
C291        C  0.07660229  0.94404215  0.32662920     1.05700
O292        O  0.11813881  0.90327271  0.25597819    -1.11500
O293        O  0.19119721  0.91427945  0.31312733    -0.73900
O294        O  0.18536325  0.96936068  0.31531446    -0.77400
O295        O  0.05813320  0.91157991  0.19268481    -0.78100
C296        C  0.20199680  0.95016024  0.32957236     0.97200
O297        O  0.18795634  0.96557378  0.20237193    -0.76000
O298        O  0.11068706  0.83840128  0.32433723    -0.81200
C299        C  0.07568118  0.81438799  0.18950167     0.99800
C300        C  0.07315808  0.82259167  0.33242133     1.05700
O301        O  0.05711704  0.83377854  0.19246774    -0.76900
C302        C  0.19884578  0.94188344  0.18358594     1.04000
C303        C  0.03002993  0.72062481  0.09489569     0.87600
C304        C  0.05214750  0.69896740  0.11230495    -0.52700
C305        C  0.02387869  0.98671541  0.10692857     0.10500
C306        C  0.32105289  0.97355080  0.06925771     0.21400
C307        C  0.02623391  0.71413034  0.03624130    -0.53400
C308        C  0.33302228  0.00567832  0.02493612     0.10600
C309        C  0.31802080  0.69017427  0.11776545    -0.52900
C310        C  0.29619074  0.98271013  0.10755092     0.11100
H311        H  0.07829043  0.71402789  0.13677967     0.15700
H312        H  0.30551880  0.94086701  0.05723466     0.01400
H313        H  0.03748914  0.73979219  0.00990724     0.16000
H314        H  0.30489446  0.70172035  0.14522435     0.15800
C315        C  0.03602210  0.71964746  0.40237170     0.87600
C316        C  0.32425139  0.69931073  0.38731051    -0.52700
C317        C  0.30387976  0.99306277  0.39563404     0.10500
C318        C  0.32774079  0.98013810  0.42933076     0.21400
C319        C  0.03086857  0.71249527  0.46076000    -0.53400
C320        C  0.34275410  0.01100004  0.47552331     0.10600
C321        C  0.05197901  0.69257997  0.38339029    -0.52900
C322        C  0.01670135  0.98283262  0.39538406     0.11100
H323        H  0.31094262  0.71218546  0.36317366     0.15700
H324        H  0.31045498  0.94712003  0.43962713     0.01400
H325        H  0.04489875  0.73777475  0.48787426     0.16000
H326        H  0.07807076  0.70416909  0.35841480     0.15800
Fe327      Fe  0.19103109  0.70856645  0.73432964     1.65800
Fe328      Fe  0.20116213  0.80287121  0.74963578     1.73200
Fe329      Fe  0.28418184  0.79285264  0.74276014     1.54400
O330        O  0.28234006  0.75408319  0.80074915    -0.80600
O331        O  0.24020337  0.84416523  0.69494967    -0.78900
O332        O  0.22591679  0.69602754  0.78125029    -0.83100
O333        O  0.22109121  0.70627553  0.66996712    -0.78000
O334        O  0.29461817  0.83686715  0.79800613    -0.79700
O335        O  0.15955594  0.77404374  0.69163376    -0.82500
C336        C  0.25834377  0.72170173  0.66323350     0.98300
C337        C  0.25862535  0.71546985  0.80551469     1.05700
O338        O  0.22543766  0.76824831  0.74231976    -1.11500
O339        O  0.15943940  0.76446728  0.80508440    -0.73900
O340        O  0.15838177  0.70506537  0.79841478    -0.77400
O341        O  0.28428860  0.75271447  0.68832899    -0.78100
C342        C  0.14725157  0.72778250  0.81959725     0.97200
O343        O  0.15029850  0.71132382  0.68634135    -0.76000
O344        O  0.23860049  0.83798091  0.80863081    -0.81200
C345        C  0.27267980  0.85176979  0.67287697     0.99800
C346        C  0.27473726  0.85074408  0.81971683     1.05700
O347        O  0.29114775  0.83328671  0.68430515    -0.76900
C348        C  0.14129083  0.73783845  0.67367949     1.04000
C349        C  0.30554501  0.95248744  0.89131857     0.87600
C350        C  0.99858645  0.96206211  0.87960056    -0.52700
C351        C  0.04850198  0.68269476  0.89010444     0.10500
C352        C  0.01849050  0.69045759  0.91908308     0.21400
C353        C  0.30641886  0.95595814  0.95015989    -0.53400
C354        C  0.00392066  0.66026603  0.96551947     0.10600
C355        C  0.28863653  0.97881756  0.87317059    -0.52900
C356        C  0.31572199  0.67482018  0.88223407     0.11100
H357        H  0.00854866  0.94786533  0.85148417     0.15700
H358        H  0.03116647  0.72332890  0.92871297     0.01400
H359        H  0.29184688  0.92902635  0.97457306     0.16000
H360        H  0.26388395  0.96737279  0.84637004     0.15800
C361        C  0.30381861  0.95462135  0.60627249     0.87600
C362        C  0.28612265  0.98146655  0.61949987    -0.52700
C363        C  0.31815512  0.67595798  0.61004561     0.10500
C364        C  0.02145832  0.68633438  0.57714032     0.21400
C365        C  0.31074115  0.95903196  0.54774740    -0.53400
C366        C  0.00065991  0.65759757  0.52986767     0.10600
C367        C  0.01586640  0.97267482  0.61512890    -0.52900
C368        C  0.04262603  0.66677763  0.60485098     0.11100
H369        H  0.25915441  0.97031772  0.64262882     0.15700
H370        H  0.04180787  0.71925445  0.56820460     0.01400
H371        H  0.29799754  0.93258812  0.52232185     0.16000
H372        H  0.03082213  0.96056087  0.63770333     0.15800
C373        C  0.29583268  0.88528820  0.85665717    -0.15400
C374        C  0.28074700  0.90898957  0.87019496    -0.30500
H375        H  0.32625854  0.89462070  0.86703185     0.13700
H376        H  0.25050759  0.89929608  0.85820696     0.14200
C377        C  0.08770732  0.71579476  0.86969673    -0.15400
C378        C  0.11724784  0.70811430  0.86097320    -0.30500
H379        H  0.08971459  0.74345948  0.85467589     0.13700
H380        H  0.11443506  0.68036744  0.87717065     0.14200
C381        C  0.30467453  0.70366299  0.85939759    -0.15400
C382        C  0.26870980  0.69018772  0.83810685    -0.30500
H383        H  0.32715079  0.73618859  0.85839210     0.13700
H384        H  0.24605909  0.65780793  0.84103799     0.14200
C385        C  0.29152681  0.88555646  0.63456387    -0.15400
C386        C  0.27792770  0.91140019  0.62743691    -0.30500
H387        H  0.32019291  0.89305775  0.61804839     0.13700
H388        H  0.24960916  0.90385328  0.64516648     0.14200
C389        C  0.08502575  0.68680477  0.62116191    -0.15400
C390        C  0.10622029  0.72530470  0.63975054    -0.30500
H391        H  0.09656931  0.66640382  0.62669786     0.13700
H392        H  0.09467749  0.74584476  0.63621044     0.14200
C393        C  0.27135151  0.69969787  0.62871815    -0.15400
C394        C  0.30932216  0.70783878  0.62723396    -0.30500
H395        H  0.24794852  0.67174552  0.61067755     0.13700
H396        H  0.33352754  0.73619842  0.64329698     0.14200
C397        C  0.02516339  0.95130474  0.37512529    -0.15400
C398        C  0.06334517  0.96180205  0.36711320    -0.30500
H399        H  0.00070669  0.92292490  0.35945827     0.13700
H400        H  0.08688665  0.98995945  0.38469075     0.14200
C401        C  0.23693141  0.97347613  0.36370421    -0.15400
C402        C  0.26399906  0.96275618  0.37397920    -0.30500
H403        H  0.24330243  0.00376119  0.37583659     0.13700
H404        H  0.25803721  0.93227955  0.36386354     0.14200
C405        C  0.05147005  0.78942046  0.37105424    -0.15400
C406        C  0.06417502  0.76396478  0.38482476    -0.30500
H407        H  0.02111836  0.78123139  0.38075501     0.13700
H408        H  0.09415083  0.77215320  0.37283037     0.14200
C409        C  0.03465442  0.95733679  0.12793511    -0.15400
C410        C  0.07244060  0.96948856  0.14034541    -0.30500
H411        H  0.01054197  0.92674998  0.13829255     0.13700
H412        H  0.09628508  0.99980124  0.12844233     0.14200
C413        C  0.25737724  0.95099307  0.13108600    -0.15400
C414        C  0.22987095  0.96104607  0.14292134    -0.30500
H415        H  0.25388952  0.92216043  0.14405451     0.13700
H416        H  0.23454080  0.98995968  0.12800210     0.14200
C417        C  0.05634547  0.77330857  0.16477953    -0.15400
C418        C  0.04952009  0.76508326  0.11396268    -0.30500
H419        H  0.04878013  0.74792869  0.19078270     0.13700
H420        H  0.05829272  0.78997525  0.08673782     0.14200
Fe421      Fe  0.48297869  0.29468399  0.23389420     1.65800
Fe422      Fe  0.47739122  0.20473201  0.26509573     1.72200
Fe423      Fe  0.39186137  0.20732567  0.24435046     1.54400
O424        O  0.39057543  0.24670440  0.29939825    -0.80600
O425        O  0.43675836  0.15432072  0.22185771    -0.78900
O426        O  0.44757997  0.30583315  0.28281149    -0.83100
O427        O  0.45075984  0.29295714  0.17025317    -0.78000
O428        O  0.38283294  0.16658257  0.30243995    -0.79700
O429        O  0.51617122  0.22775018  0.20188394    -0.82500
C430        C  0.41357021  0.27536876  0.16219507     0.98300
C431        C  0.41464218  0.28494746  0.30706368     1.05700
O432        O  0.45091077  0.23563650  0.24755726    -1.11500
O433        O  0.52189019  0.25057352  0.31160399    -0.73900
O434        O  0.52061121  0.30726488  0.29502423    -0.77400
O435        O  0.38851025  0.24343544  0.18664069    -0.78100
C436        C  0.53494896  0.28867217  0.31839755     0.97200
O437        O  0.52209128  0.28848513  0.18551405    -0.76000
O438        O  0.44160872  0.17802524  0.32986654    -0.81200
C439        C  0.40627680  0.14374557  0.19396058     0.99800
C440        C  0.40367264  0.15970350  0.33324522     1.05700
O441        O  0.38974421  0.16523523  0.19009747    -0.76900
C442        C  0.53241089  0.26193189  0.17802607     1.04000
C443        C  0.35745953  0.04979324  0.10092629     0.87600
C444        C  0.37968365  0.02712310  0.11358591    -0.52700
C445        C  0.35231642  0.31860645  0.10460424     0.10500
C446        C  0.65185426  0.31215801  0.07603274     0.21400
C447        C  0.35161976  0.04539590  0.04263681    -0.53400
C448        C  0.66931194  0.34003523  0.02751361     0.10600
C449        C  0.64759683  0.03427205  0.11665721    -0.52900
C450        C  0.63124449  0.33123219  0.10706928     0.11100
H451        H  0.40661334  0.04089866  0.13669699     0.15700
H452        H  0.63180785  0.27894636  0.06816811     0.01400
H453        H  0.36189562  0.07199783  0.01814837     0.16000
H454        H  0.63645610  0.05069367  0.13903784     0.15800
C455        C  0.36847379  0.05732277  0.40188549     0.87600
C456        C  0.66051126  0.03139228  0.36824982    -0.52700
C457        C  0.63544557  0.33238921  0.38996912     0.10500
C458        C  0.65940058  0.31735733  0.41979287     0.21400
C459        C  0.36434222  0.05131484  0.46008406    -0.53400
C460        C  0.67690513  0.34654841  0.46704717     0.10600
C461        C  0.38627981  0.03188402  0.38323157    -0.52900
C462        C  0.36032025  0.32495171  0.39129578     0.11100
H463        H  0.64935680  0.04434300  0.34051234     0.15700
H464        H  0.64149910  0.28410294  0.42860782     0.01400
H465        H  0.37737499  0.07743258  0.48593213     0.16000
H466        H  0.41160807  0.04463996  0.35691827     0.15800
Fe467      Fe  0.52285685  0.03942000  0.75310624     1.65800
Fe468      Fe  0.52124724  0.12832713  0.75290446     1.73200
Fe469      Fe  0.60878948  0.12961783  0.72780060     1.54400
O470        O  0.62124307  0.09824779  0.78215630    -0.80600
O471        O  0.55233274  0.17027175  0.69470752    -0.78900
O472        O  0.56302026  0.04422400  0.80696455    -0.83100
O473        O  0.55328683  0.03000052  0.69561773    -0.78000
O474        O  0.61928699  0.17182466  0.78453499    -0.79700
O475        O  0.47884283  0.08988070  0.69882641    -0.82500
C476        C  0.58359578  0.05078453  0.66746683     0.98300
C477        C  0.60057348  0.06760761  0.81123155     1.05700
O478        O  0.55083471  0.09915941  0.74410767    -1.11500
O479        O  0.48316657  0.09212994  0.81196653    -0.73900
O480        O  0.48672939  0.03582393  0.81249092    -0.77400
O481        O  0.60532248  0.08963469  0.67053276    -0.78100
C482        C  0.47210206  0.05657772  0.82890478     0.97200
O483        O  0.48070570  0.03155137  0.70032300    -0.76000
O484        O  0.56190186  0.16750020  0.80840852    -0.81200
C485        C  0.58308704  0.18153268  0.66683282     0.99800
C486        C  0.59930145  0.18166511  0.81381696     1.05700
O487        O  0.60530970  0.16642489  0.67172257    -0.76900
C488        C  0.46653359  0.05300244  0.68407907     1.04000
C489        C  0.63554082  0.27638492  0.90070048     0.87600
C490        C  0.35399000  0.30611121  0.88186900    -0.52700
C491        C  0.37022291  0.01654248  0.89159496     0.10500
C492        C  0.34466393  0.02835581  0.92439180     0.21400
C493        C  0.63967319  0.28388402  0.95926501    -0.53400
C494        C  0.32704296  0.99560169  0.96840773     0.10600
C495        C  0.61765616  0.30130330  0.88162480    -0.52900
C496        C  0.61795517  0.00286907  0.90184645     0.11100
H497        H  0.37007271  0.29525689  0.85869746     0.15700
H498        H  0.36161362  0.06097647  0.93653079     0.01400
H499        H  0.62661357  0.25881541  0.98666447     0.16000
H500        H  0.59149625  0.28819316  0.85701207     0.15800
C501        C  0.64931335  0.28389140  0.59413837     0.87600
C502        C  0.62864065  0.30615575  0.61592051    -0.52700
C503        C  0.64576912  0.01241639  0.60208107     0.10500
C504        C  0.34757338  0.03089901  0.57640939     0.21400
C505        C  0.65216326  0.29135250  0.53577280    -0.53400
C506        C  0.33359633  0.99913792  0.53129256     0.10600
C507        C  0.34895543  0.30741600  0.62575557    -0.52900
C508        C  0.36873622  0.01745128  0.61395888     0.11100
H509        H  0.60391793  0.29208032  0.64303383     0.15700
H510        H  0.36631196  0.06373740  0.56603920     0.01400
H511        H  0.64105532  0.26617099  0.50849256     0.16000
H512        H  0.36093223  0.29455944  0.65248984     0.15800
C513        C  0.62280491  0.21258329  0.85365139    -0.15400
C514        C  0.60891640  0.23203445  0.88265458    -0.30500
H515        H  0.65425692  0.22261952  0.85433256     0.13700
H516        H  0.57679867  0.21923445  0.88481470     0.14200
C517        C  0.41137382  0.04684383  0.87369342    -0.15400
C518        C  0.43835394  0.03546295  0.86548102    -0.30500
H519        H  0.41774992  0.07711145  0.86208678     0.13700
H520        H  0.43136820  0.00527788  0.87863050     0.14200
C521        C  0.60089786  0.02685924  0.88325790    -0.15400
C522        C  0.62151666  0.05733424  0.84958779    -0.30500
H523        H  0.56862625  0.01260333  0.88612455     0.13700
H524        H  0.65355620  0.07052271  0.84496290     0.14200
C525        C  0.59411731  0.21571992  0.63009460    -0.15400
C526        C  0.63148150  0.23914177  0.61092403    -0.30500
H527        H  0.57253477  0.22531226  0.62505477     0.13700
H528        H  0.65241689  0.22867122  0.61644665     0.14200
C529        C  0.40872030  0.04586474  0.63571019    -0.15400
C530        C  0.43259303  0.03169519  0.64878788    -0.30500
H531        H  0.41703186  0.07735763  0.64423110     0.13700
H532        H  0.42412739  0.00051046  0.63785014     0.14200
C533        C  0.59466347  0.02705232  0.63351337    -0.15400
C534        C  0.63276493  0.04058266  0.62101805    -0.30500
H535        H  0.57214485  0.99503875  0.62647163     0.13700
H536        H  0.65557068  0.07256084  0.62748579     0.14200
C537        C  0.36899609  0.29505697  0.36564044    -0.15400
C538        C  0.40531614  0.30796125  0.34487283    -0.30500
H539        H  0.34471246  0.26362623  0.36001854     0.13700
H540        H  0.42971013  0.33889267  0.35291951     0.14200
C541        C  0.56988044  0.31450295  0.35184032    -0.15400
C542        C  0.59494189  0.30275922  0.36890928    -0.30500
H543        H  0.57770637  0.34617429  0.35748671     0.13700
H544        H  0.58689544  0.27091944  0.36440717     0.14200
C545        C  0.38140256  0.12622619  0.37093544    -0.15400
C546        C  0.39516181  0.10176933  0.38476179    -0.30500
H547        H  0.35036700  0.11652950  0.37853310     0.13700
H548        H  0.42587066  0.11150196  0.37448901     0.14200
C549        C  0.36169211  0.28723050  0.12314581    -0.15400
C550        C  0.39993000  0.29613093  0.12646430    -0.30500
H551        H  0.33748809  0.25875162  0.13901786     0.13700
H552        H  0.42328049  0.32429190  0.10869471     0.14200
C553        C  0.58884185  0.31123430  0.12415023    -0.15400
C554        C  0.56725281  0.27295980  0.14342271    -0.30500
H555        H  0.57750128  0.33190733  0.12927338     0.13700
H556        H  0.57873785  0.25228573  0.14080073     0.14200
C557        C  0.38767911  0.10243559  0.17042053    -0.15400
C558        C  0.37756565  0.09390123  0.12059518    -0.30500
H559        H  0.38352049  0.07771623  0.19559408     0.13700
H560        H  0.38357663  0.11864658  0.09429595     0.14200
Fe561      Fe  0.49045439  0.63155088  0.24473051     1.65800
Fe562      Fe  0.48107718  0.53794732  0.25771152     1.72200
Fe563      Fe  0.39808155  0.54707746  0.24445467     1.54400
O564        O  0.39891176  0.59182151  0.29269205    -0.80600
O565        O  0.44642306  0.49646677  0.20126388    -0.78900
O566        O  0.46284871  0.63985824  0.30608311    -0.83100
O567        O  0.45539318  0.63979224  0.19439443    -0.78000
O568        O  0.38758623  0.51115717  0.30834563    -0.79700
O569        O  0.52526685  0.57176955  0.20084776    -0.82500
C570        C  0.42358573  0.61777712  0.16983299     0.98300
C571        C  0.42602408  0.62364367  0.31595437     1.05700
O572        O  0.45631407  0.57169237  0.24906224    -1.11500
O573        O  0.51881015  0.57392690  0.31716248    -0.73900
O574        O  0.53237791  0.63609763  0.29475613    -0.77400
O575        O  0.40072322  0.57972972  0.17890371    -0.78100
C576        C  0.53815553  0.61267187  0.32269439     0.97200
O577        O  0.51932036  0.62606961  0.18300386    -0.76000
O578        O  0.43855072  0.50003507  0.31339079    -0.81200
C579        C  0.41062153  0.48203741  0.18691192     0.99800
C580        C  0.40397149  0.49279688  0.32745668     1.05700
O581        O  0.39007530  0.49838109  0.19833407    -0.76900
C582        C  0.53333867  0.60319500  0.17352514     1.04000
C583        C  0.36033924  0.38665792  0.09751348     0.87600
C584        C  0.37574326  0.35930709  0.11718235    -0.52700
C585        C  0.36430226  0.65522408  0.09680820     0.10500
C586        C  0.65541539  0.63720192  0.06276351     0.21400
C587        C  0.35597989  0.37893473  0.03940178    -0.53400
C588        C  0.66613397  0.66855319  0.01826637     0.10600
C589        C  0.65591516  0.37184837  0.11743782    -0.52900
C590        C  0.62944596  0.64481650  0.10047321     0.11100
H591        H  0.40255339  0.37120972  0.14032352     0.15700
H592        H  0.64150115  0.60452282  0.05108375     0.01400
H593        H  0.37147590  0.40393168  0.01233397     0.16000
H594        H  0.64591474  0.38987586  0.13845938     0.15800
C595        C  0.36419885  0.39082765  0.40212998     0.87600
C596        C  0.65753063  0.37339717  0.37732227    -0.52700
C597        C  0.63561970  0.65523979  0.39546832     0.10500
C598        C  0.66237688  0.64450611  0.42598397     0.21400
C599        C  0.36260592  0.38324992  0.46012927    -0.53400
C600        C  0.67625585  0.67377295  0.47340133     0.10600
C601        C  0.38069803  0.36562812  0.37868630    -0.52900
C602        C  0.36754978  0.66011454  0.39429507     0.11100
H603        H  0.64592989  0.38792676  0.35299458     0.15700
H604        H  0.64783059  0.61122851  0.43425496     0.01400
H605        H  0.37718763  0.40865756  0.48691395     0.16000
H606        H  0.40525840  0.37909891  0.35116873     0.15800
Fe607      Fe  0.51574206  0.36622632  0.75152762     1.65800
Fe608      Fe  0.52137092  0.45800088  0.75207302     1.73200
Fe609      Fe  0.60601775  0.45257884  0.75164738     1.54400
O610        O  0.60634115  0.40856299  0.79817637    -0.80600
O611        O  0.55443596  0.49302298  0.68933188    -0.78900
O612        O  0.54276642  0.36315853  0.81653434    -0.83100
O613        O  0.55452725  0.35945592  0.70451294    -0.78000
O614        O  0.60990955  0.48490053  0.81745657    -0.79700
O615        O  0.47618848  0.41783163  0.70150052    -0.82500
C616        C  0.58587435  0.38255375  0.67874098     0.98300
C617        C  0.57962198  0.37901840  0.82474512     1.05700
O618        O  0.54770938  0.42583267  0.75124827    -1.11500
O619        O  0.48624538  0.42696928  0.81580905    -0.73900
O620        O  0.47247939  0.36342829  0.79903299    -0.77400
O621        O  0.60669629  0.42127110  0.68582435    -0.78100
C622        C  0.46751507  0.38868593  0.82512628     0.97200
O623        O  0.48608158  0.36557407  0.68712678    -0.76000
O624        O  0.56354171  0.50140750  0.80258969    -0.81200
C625        C  0.59230832  0.51318938  0.68597643     0.99800
C626        C  0.59417467  0.50638193  0.82665337     1.05700
O627        O  0.61411026  0.50192755  0.70790221    -0.76900
C628        C  0.46848517  0.38499070  0.67771567     1.04000
C629        C  0.63391562  0.61315682  0.88669601     0.87600
C630        C  0.36375265  0.64020285  0.87862712    -0.52700
C631        C  0.37006905  0.34644275  0.89542951     0.10500
C632        C  0.34062480  0.35498296  0.92409568     0.21400
C633        C  0.63604759  0.61747208  0.94543350    -0.53400
C634        C  0.32544918  0.32453912  0.97036974     0.10600
C635        C  0.62090682  0.64263779  0.86853704    -0.52900
C636        C  0.63874836  0.34182397  0.89460581     0.11100
H637        H  0.37997035  0.62919906  0.85606416     0.15700
H638        H  0.35374189  0.38791471  0.93362622     0.01400
H639        H  0.61920760  0.59134187  0.97068058     0.16000
H640        H  0.59632307  0.63322546  0.84191822     0.15800
C641        C  0.64034759  0.60938768  0.59843115     0.87600
C642        C  0.62750850  0.63812584  0.62160026    -0.52700
C643        C  0.64678938  0.34680543  0.60271781     0.10500
C644        C  0.34613283  0.35959536  0.57579260     0.21400
C645        C  0.64378546  0.61810377  0.54052819    -0.53400
C646        C  0.33323644  0.32905480  0.52967876     0.10600
C647        C  0.34980914  0.62441724  0.61852238    -0.52900
C648        C  0.36960531  0.34765288  0.61124672     0.11100
H649        H  0.60097607  0.62709120  0.64558780     0.15700
H650        H  0.36296004  0.39272162  0.56629865     0.01400
H651        H  0.62685709  0.59392088  0.51280592     0.16000
H652        H  0.35941055  0.60619294  0.63930829     0.15800
C653        C  0.61464713  0.54071041  0.86378456    -0.15400
C654        C  0.60599404  0.57061428  0.86536283    -0.30500
H655        H  0.64098349  0.54495078  0.88347117     0.13700
H656        H  0.58008579  0.56604277  0.84417412     0.14200
C657        C  0.40939526  0.37907835  0.87529311    -0.15400
C658        C  0.43828501  0.37055203  0.86717033    -0.30500
H659        H  0.41188928  0.40677449  0.85956841     0.13700
H660        H  0.43475913  0.34253621  0.88353182     0.14200
C661        C  0.62905952  0.37139286  0.87317613    -0.15400
C662        C  0.59094839  0.35946982  0.86377992    -0.30500
H663        H  0.65338180  0.40071195  0.85931363     0.13700
H664        H  0.56707576  0.33096802  0.88032354     0.14200
C665        C  0.61287294  0.55487538  0.66431343    -0.15400
C666        C  0.61338977  0.56475686  0.61450419    -0.30500
H667        H  0.63155153  0.57913505  0.69139370     0.13700
H668        H  0.59654989  0.54101836  0.58602703     0.14200
C669        C  0.40923121  0.37726646  0.63280966    -0.15400
C670        C  0.43574304  0.36543839  0.64045951    -0.30500
H671        H  0.41470532  0.40674084  0.64690993     0.13700
H672        H  0.42984584  0.33636432  0.62404451     0.14200
C673        C  0.59751607  0.36126998  0.64124782    -0.15400
C674        C  0.63515647  0.37528495  0.62550926    -0.30500
H675        H  0.57461261  0.32983152  0.63199499     0.13700
H676        H  0.65837560  0.40686588  0.63330120     0.14200
C677        C  0.37772344  0.63190478  0.36851286    -0.15400
C678        C  0.41535435  0.64514228  0.35385987    -0.30500
H679        H  0.35366370  0.60130763  0.35815939     0.13700
H680        H  0.43936770  0.67486764  0.36718026     0.14200
C681        C  0.56900676  0.63362243  0.36222627    -0.15400
C682        C  0.59638528  0.62366647  0.37371064    -0.30500
H683        H  0.57383966  0.66317656  0.37509281     0.13700
H684        H  0.59221916  0.59420928  0.36177794     0.14200
C685        C  0.37871275  0.45854575  0.36330623    -0.15400
C686        C  0.39139395  0.43564417  0.38603006    -0.30500
H687        H  0.34729616  0.44884914  0.36507204     0.13700
H688        H  0.42338536  0.44753905  0.38692470     0.14200
C689        C  0.37595589  0.62632574  0.11696875    -0.15400
C690        C  0.41339818  0.63962358  0.13201524    -0.30500
H691        H  0.35243023  0.59488281  0.12475807     0.13700
H692        H  0.43673816  0.67090623  0.12297706     0.14200
C693        C  0.59281903  0.61207417  0.12606469    -0.15400
C694        C  0.56144666  0.61712131  0.12973672    -0.30500
H695        H  0.59477120  0.58962560  0.14963490     0.13700
H696        H  0.56152168  0.64051365  0.10551138     0.14200
C697        C  0.38974291  0.44048221  0.16460500    -0.15400
C698        C  0.38568222  0.43137469  0.11407335    -0.30500
H699        H  0.37582939  0.41552945  0.19233384     0.13700
H700        H  0.39918679  0.45573861  0.08557364     0.14200
Fe701      Fe  0.48574329  0.95915488  0.24001907     1.65800
Fe702      Fe  0.47586626  0.86632545  0.26459772     1.72200
Fe703      Fe  0.39310007  0.87382158  0.24367908     1.54400
O704        O  0.39202288  0.91243312  0.30051828    -0.80600
O705        O  0.43402628  0.81763713  0.22052975    -0.78900
O706        O  0.45115597  0.97044384  0.28956906    -0.83100
O707        O  0.45623618  0.96223928  0.17657833    -0.78000
O708        O  0.38216724  0.83132027  0.30053326    -0.79700
O709        O  0.51386076  0.88901071  0.20104975    -0.82500
C710        C  0.41976294  0.94519760  0.16487266     0.98300
C711        C  0.41733268  0.94979311  0.31167288     1.05700
O712        O  0.45169188  0.89986600  0.24927316    -1.11500
O713        O  0.52228603  0.90976383  0.31088241    -0.73900
O714        O  0.52161052  0.96750017  0.30155919    -0.77400
O715        O  0.39314522  0.91241184  0.18653156    -0.78100
C716        C  0.53608195  0.94754644  0.32082491     0.97200
O717        O  0.52336101  0.95202300  0.19108800    -0.76000
O718        O  0.43981313  0.84027256  0.32935261    -0.81200
C719        C  0.40506847  0.80952272  0.19097555     0.99800
C720        C  0.40193366  0.82329704  0.33199846     1.05700
O721        O  0.39031950  0.83262749  0.18738218    -0.76900
C722        C  0.53117317  0.92418479  0.17963894     1.04000
C723        C  0.35990809  0.71724315  0.09543856     0.87600
C724        C  0.38280098  0.69587975  0.11074551    -0.52700
C725        C  0.36024652  0.98680644  0.09804303     0.10500
C726        C  0.64582170  0.97703831  0.07187869     0.21400
C727        C  0.35461638  0.71094955  0.03706728    -0.53400
C728        C  0.66310757  0.00649622  0.02503237     0.10600
C729        C  0.64650589  0.68485196  0.11585797    -0.52900
C730        C  0.62422711  0.99407504  0.10383741     0.11100
H731        H  0.40954480  0.71102717  0.13415777     0.15700
H732        H  0.62617408  0.94399231  0.06281113     0.01400
H733        H  0.36507557  0.73675201  0.01114980     0.16000
H734        H  0.63258540  0.69487775  0.14420936     0.15800
C735        C  0.36766467  0.72377020  0.40708069     0.87600
C736        C  0.65396428  0.69600924  0.38282453    -0.52700
C737        C  0.63951094  0.99082560  0.38256632     0.10500
C738        C  0.66228981  0.97914244  0.42025510     0.21400
C739        C  0.36433946  0.71431512  0.46478740    -0.53400
C740        C  0.67282465  0.00916503  0.46634975     0.10600
C741        C  0.38709356  0.70114679  0.38377894    -0.52900
C742        C  0.36506793  0.99133352  0.39660191     0.11100
H743        H  0.63958479  0.70707474  0.35773849     0.15700
H744        H  0.64584247  0.94598308  0.42977062     0.01400
H745        H  0.37617087  0.73865874  0.49328916     0.16000
H746        H  0.41284959  0.71617914  0.35816284     0.15800
Fe747      Fe  0.52432072  0.70997670  0.73561234     1.65800
Fe748      Fe  0.52768514  0.80011239  0.75572339     1.73200
Fe749      Fe  0.61460494  0.79906808  0.73675318     1.54400
O750        O  0.61822785  0.76440558  0.79588950    -0.80600
O751        O  0.56202707  0.84315320  0.70125420    -0.78900
O752        O  0.56138859  0.70392551  0.78555688    -0.83100
O753        O  0.55523639  0.70788044  0.67208353    -0.78000
O754        O  0.62414287  0.84274927  0.79154646    -0.79700
O755        O  0.48588801  0.77019928  0.69911916    -0.82500
C756        C  0.59225927  0.72566336  0.66221974     0.98300
C757        C  0.59439764  0.72697435  0.80803945     1.05700
O758        O  0.55548031  0.76970187  0.74232509    -1.11500
O759        O  0.48934261  0.76060866  0.81128663    -0.73900
O760        O  0.48946714  0.70266431  0.79887498    -0.77400
O761        O  0.61742546  0.75948652  0.68309428    -0.78100
C762        C  0.47800318  0.72385644  0.82301011     0.97200
O763        O  0.48335170  0.71072193  0.68630681    -0.76000
O764        O  0.56509911  0.83319691  0.81473477    -0.81200
C765        C  0.59174954  0.85184888  0.67240929     0.99800
C766        C  0.60235118  0.84985364  0.82092215     1.05700
O767        O  0.61362000  0.83598420  0.67777232    -0.76900
C768        C  0.47130902  0.73553391  0.67728577     1.04000
C769        C  0.62480863  0.94297260  0.90019890     0.87600
C770        C  0.34964201  0.97679199  0.87413019    -0.52700
C771        C  0.38015366  0.68020916  0.89337545     0.10500
C772        C  0.35032768  0.68916430  0.92048845     0.21400
C773        C  0.63566419  0.95130235  0.95715030    -0.53400
C774        C  0.33305755  0.65799030  0.96585254     0.10600
C775        C  0.59949665  0.96225433  0.89008340    -0.52900
C776        C  0.64480345  0.68236181  0.88410695     0.11100
H777        H  0.36280006  0.96461138  0.84777976     0.15700
H778        H  0.36398990  0.72202505  0.93078777     0.01400
H779        H  0.62911645  0.92668275  0.98373162     0.16000
H780        H  0.57050523  0.94595425  0.87141857     0.15800
C781        C  0.65155013  0.95137595  0.59569882     0.87600
C782        C  0.62988205  0.97264147  0.61816706    -0.52700
C783        C  0.65210078  0.67869589  0.60942172     0.10500
C784        C  0.35499614  0.68447617  0.57801965     0.21400
C785        C  0.65098508  0.95620103  0.53714324    -0.53400
C786        C  0.33673934  0.65668251  0.52985315     0.10600
C787        C  0.34566416  0.97763883  0.62984771    -0.52900
C788        C  0.37485833  0.66459457  0.60759067     0.11100
H789        H  0.60568636  0.95851487  0.64611385     0.15700
H790        H  0.37568909  0.71754497  0.57043651     0.01400
H791        H  0.63980909  0.93009100  0.51131963     0.16000
H792        H  0.35544834  0.96406911  0.65861159     0.15800
C793        C  0.62194450  0.88104221  0.86151721    -0.15400
C794        C  0.60297840  0.89830769  0.88410042    -0.30500
H795        H  0.65397463  0.89477575  0.86603621     0.13700
H796        H  0.57088727  0.88374011  0.87879410     0.14200
C797        C  0.42040507  0.71247671  0.87554226    -0.15400
C798        C  0.44821411  0.70281571  0.86389392    -0.30500
H799        H  0.42442916  0.74184371  0.86392195     0.13700
H800        H  0.44409089  0.67367441  0.87682041     0.14200
C801        C  0.64024893  0.71570284  0.86198788    -0.15400
C802        C  0.60346838  0.70726166  0.84977245    -0.30500
H803        H  0.66661668  0.74361933  0.84855704     0.13700
H804        H  0.57788543  0.67934674  0.86493601     0.14200
C805        C  0.60067461  0.88326778  0.63284334    -0.15400
C806        C  0.63761704  0.90820921  0.61480300    -0.30500
H807        H  0.57760988  0.89046185  0.62522903     0.13700
H808        H  0.66040132  0.90094515  0.62430892     0.14200
C809        C  0.41675870  0.68439419  0.62425112    -0.15400
C810        C  0.43686834  0.72268043  0.64294271    -0.30500
H811        H  0.42856934  0.66424646  0.62995633     0.13700
H812        H  0.42447919  0.74249960  0.63971815     0.14200
C813        C  0.60567069  0.70320211  0.62866677    -0.15400
C814        C  0.64355673  0.71093572  0.62714943    -0.30500
H815        H  0.58223476  0.67491281  0.61131344     0.13700
H816        H  0.66788920  0.73935228  0.64287586     0.14200
C817        C  0.37247740  0.96054205  0.37097540    -0.15400
C818        C  0.40875220  0.97225424  0.35119753    -0.30500
H819        H  0.34726332  0.92992007  0.36350087     0.13700
H820        H  0.43388721  0.00232818  0.36117298     0.14200
C821        C  0.57203708  0.97156074  0.35303376    -0.15400
C822        C  0.59915532  0.96055976  0.36219663    -0.30500
H823        H  0.57923849  0.00238444  0.36379456     0.13700
H824        H  0.59249836  0.92968812  0.35301989     0.14200
C825        C  0.37814809  0.79004415  0.36938198    -0.15400
C826        C  0.39278173  0.76925222  0.39319176    -0.30500
H827        H  0.34626900  0.77809287  0.36956310     0.13700
H828        H  0.42503420  0.78302196  0.39480014     0.14200
C829        C  0.37083912  0.95667014  0.11758567    -0.15400
C830        C  0.40877945  0.96765617  0.12823429    -0.30500
H831        H  0.34649865  0.92629974  0.12819128     0.13700
H832        H  0.43278411  0.99759822  0.11552916     0.14200
C833        C  0.58193441  0.97178902  0.11949941    -0.15400
C834        C  0.56431913  0.93503877  0.14285638    -0.30500
H835        H  0.56800749  0.99029123  0.12195484     0.13700
H836        H  0.57835770  0.91663114  0.14209117     0.14200
C837        C  0.38581276  0.76885855  0.16575836    -0.15400
C838        C  0.37905878  0.76137927  0.11491642    -0.30500
H839        H  0.37915072  0.74329352  0.19098444     0.13700
H840        H  0.38721415  0.78646910  0.08823686     0.14200
Fe841      Fe  0.81723951  0.29383298  0.23449090     1.65800
Fe842      Fe  0.80861669  0.20296925  0.26660304     1.72200
Fe843      Fe  0.72544481  0.20856524  0.24399080     1.54400
O844        O  0.72514787  0.24721455  0.30038508    -0.80600
O845        O  0.76721453  0.15347059  0.22294157    -0.78900
O846        O  0.78163778  0.30622456  0.28100773    -0.83100
O847        O  0.78671186  0.29230339  0.16903351    -0.78000
O848        O  0.71418068  0.16554905  0.29982701    -0.79700
O849        O  0.84741337  0.22378642  0.20400059    -0.82500
C850        C  0.74960978  0.27724368  0.16276701     0.98300
C851        C  0.74919022  0.28568011  0.30634522     1.05700
O852        O  0.78405908  0.23529659  0.24822056    -1.11500
O853        O  0.85363497  0.24795672  0.31277990    -0.73900
O854        O  0.85317768  0.30528687  0.29742992    -0.77400
O855        O  0.72386389  0.24677567  0.18860270    -0.78100
C856        C  0.86692579  0.28595214  0.32049047     0.97200
O857        O  0.85589638  0.28572122  0.18854266    -0.76000
O858        O  0.77258973  0.17912639  0.33109347    -0.81200
C859        C  0.73889744  0.14563440  0.19220995     0.99800
C860        C  0.73463306  0.15961964  0.33229623     1.05700
O861        O  0.72401871  0.16855213  0.18768842    -0.76900
C862        C  0.86468747  0.25809455  0.18067375     1.04000
C863        C  0.69060193  0.05436597  0.09719516     0.87600
C864        C  0.70619355  0.02697011  0.11638033    -0.52700
C865        C  0.68935225  0.32191575  0.10726373     0.10500
C866        C  0.98413863  0.31067024  0.08146001     0.21400
C867        C  0.68667817  0.04726289  0.03873516    -0.53400
C868        C  0.00131618  0.33838467  0.03314762     0.10600
C869        C  0.98087220  0.02552061  0.12671456    -0.52900
C870        C  0.96056111  0.32724992  0.10983306     0.11100
H871        H  0.73285301  0.03868656  0.13976216     0.15700
H872        H  0.96592332  0.27721354  0.07411506     0.01400
H873        H  0.70139758  0.07227248  0.01140649     0.16000
H874        H  0.96896762  0.03902945  0.15306904     0.15800
C875        C  0.70159878  0.05654918  0.39425926     0.87600
C876        C  0.98122564  0.02930300  0.37677133    -0.52700
C877        C  0.96609648  0.32671839  0.39364387     0.10500
C878        C  0.98920494  0.31167682  0.42535401     0.21400
C879        C  0.69287213  0.04982737  0.45182294    -0.53400
C880        C  0.00442896  0.34037511  0.47329525     0.10600
C881        C  0.72327702  0.03371156  0.38140426    -0.52900
C882        C  0.69545784  0.32826821  0.38487629     0.11100
H883        H  0.97111979  0.04396952  0.35012759     0.15700
H884        H  0.97151256  0.27829250  0.43351842     0.01400
H885        H  0.70369450  0.07569630  0.47786915     0.16000
H886        H  0.75213889  0.04781262  0.36192928     0.15800
Fe887      Fe  0.84091343  0.03368171  0.75555056     1.65800
Fe888      Fe  0.84385747  0.12508004  0.75209417     1.73200
Fe889      Fe  0.93087854  0.12248710  0.76435561     1.54400
O890        O  0.92942126  0.08250311  0.81980693    -0.80600
O891        O  0.88620291  0.16974276  0.70350314    -0.78900
O892        O  0.86818487  0.02721003  0.81863155    -0.83100
O893        O  0.87911575  0.02912281  0.70678680    -0.78000
O894        O  0.92982362  0.15993461  0.82342140    -0.79700
O895        O  0.81299285  0.09350612  0.68737056    -0.82500
C896        C  0.91431302  0.05094274  0.69010655     0.98300
C897        C  0.90317622  0.04728279  0.83646893     1.05700
O898        O  0.87205418  0.09398225  0.75732472    -1.11500
O899        O  0.79633229  0.08629924  0.80048700    -0.73900
O900        O  0.79812521  0.02890542  0.80458898    -0.77400
O901        O  0.93784625  0.08773283  0.70556847    -0.78100
C902        C  0.78332567  0.05031956  0.81753666     0.97200
O903        O  0.81069752  0.03352559  0.69153389    -0.76000
O904        O  0.87251572  0.15978131  0.81592361    -0.81200
C905        C  0.92264014  0.18312544  0.69307419     0.99800
C906        C  0.90564461  0.17149947  0.83782068     1.05700
O907        O  0.94176768  0.16721585  0.71085526    -0.76900
C908        C  0.80283524  0.05824151  0.66962844     1.04000
C909        C  0.97302077  0.27118219  0.90976439     0.87600
C910        C  0.67877906  0.29989487  0.87955271    -0.52700
C911        C  0.68293337  0.01101557  0.88440438     0.10500
C912        C  0.65992980  0.02075956  0.92462133     0.21400
C913        C  0.97568555  0.28057672  0.96761253    -0.53400
C914        C  0.65360509  0.99210237  0.97069519     0.10600
C915        C  0.95322747  0.29358581  0.88617223    -0.52900
C916        C  0.96055606  0.00532292  0.90276735     0.11100
H917        H  0.69065065  0.28714584  0.85232869     0.15700
H918        H  0.67446530  0.05396507  0.93373554     0.01400
H919        H  0.96380248  0.25624033  0.99596285     0.16000
H920        H  0.92818463  0.27903135  0.85988656     0.15800
C921        C  0.96991763  0.27569333  0.59891437     0.87600
C922        C  0.96017636  0.30568574  0.62563793    -0.52700
C923        C  0.97126165  0.01099114  0.61147397     0.10500
C924        C  0.68188226  0.02746337  0.56648064     0.21400
C925        C  0.97030730  0.28460667  0.54112951    -0.53400
C926        C  0.66697478  0.99629560  0.52136663     0.10600
C927        C  0.69239815  0.31006197  0.61297540    -0.52900
C928        C  0.71101125  0.01951934  0.59560793     0.11100
H929        H  0.93557461  0.29572950  0.65285953     0.15700
H930        H  0.69521420  0.06027249  0.55659769     0.01400
H931        H  0.95196834  0.26065555  0.51378590     0.16000
H932        H  0.70633602  0.29774333  0.63722319     0.15800
C933        C  0.91698597  0.20283039  0.87887007    -0.15400
C934        C  0.95484855  0.22613903  0.89483804    -0.30500
H935        H  0.89558098  0.21211312  0.88840812     0.13700
H936        H  0.97559261  0.21610587  0.88452660     0.14200
C937        C  0.72205290  0.04150379  0.86140040    -0.15400
C938        C  0.74881098  0.02995334  0.85252579    -0.30500
H939        H  0.72745393  0.07122391  0.84898626     0.13700
H940        H  0.74263712  0.00053654  0.86766876     0.14200
C941        C  0.95137071  0.03630821  0.88385556    -0.15400
C942        C  0.91353856  0.02616974  0.87509107    -0.30500
H943        H  0.97614952  0.06568601  0.87088942     0.13700
H944        H  0.88919816  0.99703035  0.88948547     0.14200
C945        C  0.94603295  0.22305093  0.66711950    -0.15400
C946        C  0.94271131  0.23173675  0.61765371    -0.30500
H947        H  0.96841746  0.24735903  0.69134218     0.13700
H948        H  0.92169969  0.20790123  0.59178327     0.14200
C949        C  0.75027699  0.05221026  0.61407376    -0.15400
C950        C  0.77840786  0.04296900  0.62344363    -0.30500
H951        H  0.75223182  0.07960904  0.63049234     0.13700
H952        H  0.77583620  0.01557860  0.60588993     0.14200
C953        C  0.92595102  0.02939653  0.65270239    -0.15400
C954        C  0.96309795  0.04118453  0.63728615    -0.30500
H955        H  0.90199950  0.99903788  0.64100987     0.13700
H956        H  0.98782312  0.07175199  0.64628818     0.14200
C957        C  0.70358469  0.29754633  0.36123618    -0.15400
C958        C  0.74028322  0.30932406  0.34319223    -0.30500
H959        H  0.67878610  0.26650759  0.35468981     0.13700
H960        H  0.76505079  0.33995646  0.35182365     0.14200
C961        C  0.90145320  0.31058771  0.35481487    -0.15400
C962        C  0.92580892  0.29780812  0.37168685    -0.30500
H963        H  0.90958800  0.34224503  0.36148418     0.13700
H964        H  0.91737017  0.26591508  0.36644237     0.14200
C965        C  0.71266669  0.12535390  0.36852195    -0.15400
C966        C  0.72715992  0.10091574  0.37812308    -0.30500
H967        H  0.68150790  0.11474368  0.37693043     0.13700
H968        H  0.75767838  0.11133006  0.36595434     0.14200
C969        C  0.69862982  0.29058325  0.12552340    -0.15400
C970        C  0.73674075  0.29905210  0.12796358    -0.30500
H971        H  0.67434843  0.26214035  0.14137472     0.13700
H972        H  0.76028958  0.32701033  0.11006166     0.14200
C973        C  0.91760065  0.30466200  0.12221090    -0.15400
C974        C  0.89909701  0.26831288  0.14641727    -0.30500
H975        H  0.90336307  0.32291074  0.12152689     0.13700
H976        H  0.91328418  0.25010227  0.14879210     0.14200
C977        C  0.71966507  0.10529463  0.16701858    -0.15400
C978        C  0.71469971  0.09846278  0.11594140    -0.30500
H979        H  0.70924377  0.07921128  0.19283516     0.13700
H980        H  0.72631454  0.12392066  0.08898719     0.14200
Fe981      Fe  0.82440287  0.63712051  0.23874876     1.65800
Fe982      Fe  0.81877251  0.54537945  0.25162130     1.72200
Fe983      Fe  0.73372008  0.55061087  0.24128955     1.54400
O984        O  0.73306302  0.59525433  0.28774671    -0.80600
O985        O  0.78550756  0.50450192  0.19366879    -0.78900
O986        O  0.79658741  0.64418793  0.30091350    -0.83100
O987        O  0.78731127  0.64245154  0.18871562    -0.78000
O988        O  0.72607443  0.51757023  0.30683375    -0.79700
O989        O  0.86317274  0.58136811  0.19618256    -0.82500
C990        C  0.75597176  0.61864759  0.16413648     0.98300
C991        C  0.75978191  0.62696932  0.31142619     1.05700
O992        O  0.79217179  0.57726328  0.24389052    -1.11500
O993        O  0.85555005  0.58204815  0.31148219    -0.73900
O994        O  0.86778186  0.64358927  0.28774535    -0.77400
O995        O  0.73439788  0.58064347  0.17437397    -0.78100
C996        C  0.87472185  0.62098091  0.31574822     0.97200
O997        O  0.85386051  0.63319850  0.17652733    -0.76000
O998        O  0.77639311  0.50529570  0.30648616    -0.81200
C999        C  0.74857996  0.48724261  0.18332346     0.99800
C1000       C  0.74251569  0.49848958  0.32327510     1.05700
O1001       O  0.72667393  0.50128840  0.19779190    -0.76900
C1002       C  0.87045954  0.61250069  0.16881437     1.04000
C1003       C  0.69865119  0.39016980  0.09737521     0.87600
C1004       C  0.71340135  0.36274627  0.11856666    -0.52700
C1005       C  0.69447381  0.65262299  0.09187302     0.10500
C1006       C  0.99569342  0.64342347  0.06730560     0.21400
C1007       C  0.69391123  0.38100310  0.03962904    -0.53400
C1008       C  0.00843472  0.67357467  0.02102100     0.10600
C1009       C  0.98248516  0.36788127  0.12107106    -0.52900
C1010       C  0.96953307  0.65320923  0.10161028     0.11100
H1011       H  0.74045569  0.37475649  0.14123177     0.15700
H1012       H  0.98077019  0.61031630  0.05764921     0.01400
H1013       H  0.70942704  0.40535812  0.01177213     0.16000
H1014       H  0.96969720  0.38393183  0.14076107     0.15800
C1015       C  0.70157573  0.39515145  0.39521679     0.87600
C1016       C  0.98837548  0.36770108  0.38151663    -0.52700
C1017       C  0.96984754  0.65755846  0.39430202     0.10500
C1018       C  0.99168126  0.64210180  0.42762601     0.21400
C1019       C  0.69934967  0.38731927  0.45335453    -0.53400
C1020       C  0.00777813  0.67178904  0.47476713     0.10600
C1021       C  0.71700509  0.36886541  0.37211756    -0.52900
C1022       C  0.69972508  0.65980110  0.39226746     0.11100
H1023       H  0.97718191  0.38189906  0.35602381     0.15700
H1024       H  0.97308659  0.60890356  0.43642779     0.01400
H1025       H  0.71481969  0.41235231  0.48051398     0.16000
H1026       H  0.74193321  0.38154884  0.34512503     0.15800
Fe1027     Fe  0.85378680  0.36639692  0.74475244     1.65800
Fe1028     Fe  0.85369298  0.45577295  0.75415774     1.73200
Fe1029     Fe  0.94230117  0.45600460  0.76186730     1.54400
O1030       O  0.94152789  0.41203596  0.81082701    -0.80600
O1031       O  0.89108749  0.49727959  0.69872798    -0.78900
O1032       O  0.88034114  0.35671097  0.80593675    -0.83100
O1033       O  0.89438323  0.36688344  0.69441896    -0.78000
O1034       O  0.94141055  0.48945574  0.82553499    -0.79700
O1035       O  0.81430712  0.42060103  0.69575344    -0.82500
C1036       C  0.92972759  0.39122603  0.67930557     0.98300
C1037       C  0.91526540  0.37556821  0.82406313     1.05700
O1038       O  0.88343972  0.42625970  0.75377418    -1.11500
O1039       O  0.81328458  0.41758133  0.81017121    -0.73900
O1040       O  0.80897363  0.35761881  0.79420167    -0.77400
O1041       O  0.95148845  0.42711666  0.69821987    -0.78100
C1042       C  0.79776624  0.37924277  0.81789089     0.97200
O1043       O  0.82390923  0.36841321  0.68190105    -0.76000
O1044       O  0.88837726  0.49585609  0.81208929    -0.81200
C1045       C  0.92887944  0.51585254  0.69397527     0.99800
C1046       C  0.92053530  0.50577733  0.83556168     1.05700
O1047       O  0.95040007  0.50392165  0.71532282    -0.76900
C1048       C  0.80772350  0.38882051  0.67077702     1.04000
C1049       C  0.98934745  0.61375605  0.89230181     0.87600
C1050       C  0.67752630  0.63298627  0.86823544    -0.52700
C1051       C  0.70012503  0.34053542  0.89287725     0.10500
C1052       C  0.67629408  0.35418242  0.92580432     0.21400
C1053       C  0.98837478  0.61992372  0.95062696    -0.53400
C1054       C  0.66125372  0.32486628  0.97294716     0.10600
C1055       C  0.96731993  0.63364382  0.86877167    -0.52900
C1056       C  0.97239755  0.33469924  0.89745044     0.11100
H1057       H  0.68751163  0.61774667  0.84177782     0.15700
H1058       H  0.69331087  0.38755299  0.93393672     0.01400
H1059       H  0.97711728  0.59428263  0.97697833     0.16000
H1060       H  0.94334421  0.61757511  0.84124031     0.15800
C1061       C  0.97407135  0.60918120  0.60179666     0.87600
C1062       C  0.96215089  0.63831112  0.62599615    -0.52700
C1063       C  0.98537897  0.34604061  0.61334208     0.10500
C1064       C  0.68431399  0.36166267  0.56928959     0.21400
C1065       C  0.97547871  0.61706071  0.54371074    -0.53400
C1066       C  0.67050829  0.33217852  0.52202765     0.10600
C1067       C  0.68348518  0.62663784  0.61561474    -0.52900
C1068       C  0.71077542  0.35073411  0.60040460     0.11100
H1069       H  0.93645097  0.62776252  0.65146317     0.15700
H1070       H  0.69925208  0.39491037  0.56065148     0.01400
H1071       H  0.95808908  0.59238887  0.51678630     0.16000
H1072       H  0.69323542  0.60822118  0.63559521     0.15800
C1073       C  0.93519956  0.54050931  0.87267474    -0.15400
C1074       C  0.97415300  0.56992875  0.87367697    -0.30500
H1075       H  0.91351274  0.54702600  0.88978091     0.13700
H1076       H  0.99521381  0.56394756  0.85351110     0.14200
C1077       C  0.74002533  0.36987022  0.87040656    -0.15400
C1078       C  0.76434444  0.35676142  0.85422855    -0.30500
H1079       H  0.74770524  0.40130107  0.86333124     0.13700
H1080       H  0.75677010  0.32561774  0.86319928     0.14200
C1081       C  0.96245658  0.36370227  0.87343070    -0.15400
C1082       C  0.92508010  0.35176676  0.85931946    -0.30500
H1083       H  0.98674757  0.39466220  0.86500509     0.13700
H1084       H  0.90093464  0.32112169  0.86951425     0.14200
C1085       C  0.95001632  0.55658945  0.66984994    -0.15400
C1086       C  0.94769077  0.56508537  0.62010978    -0.30500
H1087       H  0.97070254  0.58134945  0.69503892     0.13700
H1088       H  0.92868630  0.54075004  0.59338089     0.14200
C1089       C  0.74978556  0.38146780  0.62278319    -0.15400
C1090       C  0.77783664  0.37156783  0.62954720    -0.30500
H1091       H  0.75276979  0.40903389  0.64017586     0.13700
H1092       H  0.77421922  0.34426909  0.61034340     0.14200
C1093       C  0.94399897  0.37429156  0.63872641    -0.15400
C1094       C  0.98061474  0.37918514  0.63700523    -0.30500
H1095       H  0.92059379  0.34915971  0.61638734     0.13700
H1096       H  0.00509642  0.40338430  0.65890114     0.14200
C1097       C  0.71085433  0.63229013  0.36656975    -0.15400
C1098       C  0.74853954  0.64699868  0.35071658    -0.30500
H1099       H  0.68733225  0.60140519  0.35626114     0.13700
H1100       H  0.77208024  0.67696515  0.36411574     0.14200
C1101       C  0.90732717  0.64312013  0.35298049    -0.15400
C1102       C  0.93011212  0.62906182  0.37106442    -0.30500
H1103       H  0.91620093  0.67493530  0.36031775     0.13700
H1104       H  0.92135708  0.59714078  0.36503271     0.14200
C1105       C  0.71788109  0.46415665  0.35934220    -0.15400
C1106       C  0.72993262  0.43975290  0.37901490    -0.30500
H1107       H  0.68691891  0.45569513  0.36407932     0.13700
H1108       H  0.76155983  0.45001916  0.37655205     0.14200
C1109       C  0.70669454  0.62419423  0.11168037    -0.15400
C1110       C  0.74465209  0.63823417  0.12467751    -0.30500
H1111       H  0.68343254  0.59314324  0.12186359     0.13700
H1112       H  0.76749696  0.66920650  0.11339061     0.14200
C1113       C  0.93114786  0.62155786  0.12479409    -0.15400
C1114       C  0.90131777  0.62907220  0.12827498    -0.30500
H1115       H  0.92985337  0.59597403  0.14516341     0.13700
H1116       H  0.90395472  0.65478656  0.10641703     0.14200
C1117       C  0.72842236  0.44529598  0.16248517    -0.15400
C1118       C  0.72474980  0.43512764  0.11232396    -0.30500
H1119       H  0.71338339  0.42101084  0.19090551     0.13700
H1120       H  0.73872023  0.45881118  0.08302583     0.14200
Fe1121     Fe  0.80197852  0.95893552  0.24934554     1.65800
Fe1122     Fe  0.80811293  0.87281316  0.25593336     1.72200
Fe1123     Fe  0.71843008  0.86542446  0.22770346     1.54400
O1124       O  0.70348346  0.89550405  0.28160411    -0.80600
O1125       O  0.77822254  0.82801421  0.20055919    -0.78900
O1126       O  0.75984381  0.95377558  0.30189656    -0.83100
O1127       O  0.77099850  0.96397326  0.18953938    -0.78000
O1128       O  0.70960289  0.82407374  0.28454079    -0.79700
O1129       O  0.85003043  0.91000934  0.20013162    -0.82500
C1130       C  0.74020171  0.94158862  0.16317881     0.98300
C1131       C  0.72267660  0.92811031  0.30804110     1.05700
O1132       O  0.77630060  0.89909321  0.24398795    -1.11500
O1133       O  0.84552895  0.91278388  0.31255426    -0.73900
O1134       O  0.83926278  0.96747156  0.30951292    -0.77400
O1135       O  0.71856932  0.90309359  0.16980802    -0.78100
C1136       C  0.85588596  0.94896012  0.32661671     0.97200
O1137       O  0.84542188  0.96673623  0.19760970    -0.76000
O1138       O  0.76813350  0.83452477  0.31301676    -0.81200
C1139       C  0.74853964  0.81553991  0.17086452     0.99800
C1140       C  0.73008428  0.81686129  0.31578960     1.05700
O1141       O  0.72568296  0.83015280  0.17222132    -0.76900
C1142       C  0.86108295  0.94597822  0.18325995     1.04000
C1143       C  0.68825656  0.71364435  0.09353619     0.87600
C1144       C  0.71188994  0.69271808  0.10784915    -0.52700
C1145       C  0.68281161  0.98639765  0.10315629     0.10500
C1146       C  0.98453570  0.97248929  0.07851265     0.21400
C1147       C  0.68291642  0.70842650  0.03513073    -0.53400
C1148       C  0.99625225  0.00163045  0.03137796     0.10600
C1149       C  0.98736406  0.69366320  0.11550035    -0.52900
C1150       C  0.96076811  0.98475187  0.11412076     0.11100
H1151       H  0.73745121  0.70630087  0.13315576     0.15700
H1152       H  0.96820215  0.93914495  0.06985892     0.01400
H1153       H  0.69161756  0.73439780  0.00993812     0.16000
H1154       H  0.97335265  0.70521155  0.14148832     0.15800
C1155       C  0.69751059  0.72238274  0.40184921     0.87600
C1156       C  0.99318977  0.69823945  0.38093476    -0.52700
C1157       C  0.95764260  0.98905071  0.39184040     0.10500
C1158       C  0.97934724  0.97397816  0.42632589     0.21400
C1159       C  0.69493467  0.71471231  0.46018708    -0.53400
C1160       C  0.99542717  0.00488739  0.47222390     0.10600
C1161       C  0.71794338  0.70041232  0.38014938    -0.52900
C1162       C  0.70288495  0.99351747  0.39439596     0.11100
H1163       H  0.98347693  0.71307308  0.35405861     0.15700
H1164       H  0.96029343  0.94109981  0.43654114     0.01400
H1165       H  0.70634880  0.73965433  0.48790341     0.16000
H1166       H  0.74325523  0.71545868  0.35382320     0.15800
Fe1167     Fe  0.85539939  0.70430772  0.73394988     1.65800
Fe1168     Fe  0.85955981  0.79426793  0.76124658     1.73200
Fe1169     Fe  0.94568501  0.79094410  0.75159022     1.54400
O1170       O  0.94390878  0.75005700  0.80603039    -0.80600
O1171       O  0.90211802  0.84447955  0.71955435    -0.78900
O1172       O  0.89083315  0.69127677  0.77948265    -0.83100
O1173       O  0.88891861  0.70936706  0.66957533    -0.78000
O1174       O  0.95094236  0.83065549  0.81068333    -0.79700
O1175       O  0.82480562  0.77220175  0.69550735    -0.82500
C1176       C  0.92642213  0.72503551  0.66596082     0.98300
C1177       C  0.92214572  0.71097923  0.80659481     1.05700
O1178       O  0.88682575  0.76321979  0.74894476    -1.11500
O1179       O  0.81336874  0.74795426  0.80470534    -0.73900
O1180       O  0.81843721  0.69223703  0.79662320    -0.77400
O1181       O  0.95076430  0.75489244  0.69418866    -0.78100
C1182       C  0.80197372  0.71080538  0.81552823     0.97200
O1183       O  0.81524527  0.70930413  0.68718032    -0.76000
O1184       O  0.89056964  0.82049572  0.82847493    -0.81200
C1185       C  0.93460810  0.85501670  0.69575347     0.99800
C1186       C  0.92772799  0.83775008  0.83745362     1.05700
O1187       O  0.95208505  0.83437921  0.69733856    -0.76900
C1188       C  0.80689153  0.73657366  0.67546921     1.04000
C1189       C  0.95687904  0.93920052  0.90470050     0.87600
C1190       C  0.66396362  0.97053121  0.87080715    -0.52700
C1191       C  0.70161842  0.67275107  0.88454768     0.10500
C1192       C  0.67970602  0.68882640  0.91773739     0.21400
C1193       C  0.96433215  0.94629641  0.96281362    -0.53400
C1194       C  0.66001923  0.65720324  0.96238851     0.10600
C1195       C  0.93813554  0.96465738  0.88995534    -0.52900
C1196       C  0.98235941  0.67385132  0.88290166     0.11100
H1197       H  0.67555145  0.95943768  0.84067245     0.15700
H1198       H  0.69948499  0.72131791  0.92943236     0.01400
H1199       H  0.95211640  0.92096306  0.98976051     0.16000
H1200       H  0.91074079  0.95197908  0.86790951     0.15800
C1201       C  0.97145476  0.94695352  0.60188349     0.87600
C1202       C  0.95289164  0.97052107  0.62583307    -0.52700
C1203       C  0.98637088  0.67862445  0.61279064     0.10500
C1204       C  0.68841918  0.68693444  0.57591403     0.21400
C1205       C  0.97009447  0.95225503  0.54361263    -0.53400
C1206       C  0.66918208  0.65880088  0.52791968     0.10600
C1207       C  0.69504703  0.97978226  0.61073891    -0.52900
C1208       C  0.70869875  0.66706244  0.60502483     0.11100
H1209       H  0.92919852  0.95694003  0.65458494     0.15700
H1210       H  0.70904953  0.71992709  0.56746641     0.01400
H1211       H  0.95708877  0.92611806  0.51772181     0.16000
H1212       H  0.71112419  0.96964839  0.63456544     0.15800
C1213       C  0.94601095  0.87028959  0.87736552    -0.15400
C1214       C  0.93109904  0.89479326  0.88697763    -0.30500
H1215       H  0.97613298  0.87997111  0.88974478     0.13700
H1216       H  0.90179740  0.88560155  0.87167643     0.14200
C1217       C  0.74278551  0.70047197  0.86469970    -0.15400
C1218       C  0.76626242  0.68633563  0.84822959    -0.30500
H1219       H  0.75272726  0.73283463  0.86059730     0.13700
H1220       H  0.75671944  0.65423358  0.85418183     0.14200
C1221       C  0.96895156  0.70097014  0.86078064    -0.15400
C1222       C  0.93331897  0.68593964  0.83776424    -0.30500
H1223       H  0.98975675  0.73395591  0.86161057     0.13700
H1224       H  0.91210123  0.65307406  0.83829173     0.14200
C1225       C  0.95491956  0.89584529  0.67140033    -0.15400
C1226       C  0.95237683  0.90292055  0.62116628    -0.30500
H1227       H  0.97012585  0.92187572  0.69751312     0.13700
H1228       H  0.93662072  0.87730999  0.59461589     0.14200
C1229       C  0.75089460  0.68663862  0.62203488    -0.15400
C1230       C  0.77261490  0.72517776  0.64048010    -0.30500
H1231       H  0.76181862  0.66575470  0.62800129     0.13700
H1232       H  0.76169345  0.74622782  0.63663978     0.14200
C1233       C  0.94087280  0.70420633  0.63111176    -0.15400
C1234       C  0.97837582  0.71089995  0.63181027    -0.30500
H1235       H  0.91806736  0.67748673  0.61035144     0.13700
H1236       H  0.00225575  0.73773446  0.65100255     0.14200
C1237       C  0.71928757  0.96783322  0.37973407    -0.15400
C1238       C  0.70007730  0.93779550  0.34525699    -0.30500
H1239       H  0.75129456  0.98128060  0.38473553     0.13700
H1240       H  0.66833920  0.92501248  0.33866389     0.14200
C1241       C  0.89111480  0.97294708  0.36019648    -0.15400
C1242       C  0.91678870  0.96049290  0.37165849    -0.30500
H1243       H  0.89917576  0.00424016  0.36969587     0.13700
H1244       H  0.90868267  0.92897078  0.36381072     0.14200
C1245       C  0.70651536  0.78446807  0.35421996    -0.15400
C1246       C  0.72158321  0.76723005  0.38457416    -0.30500
H1247       H  0.67454733  0.77123813  0.35189134     0.13700
H1248       H  0.75381613  0.78289630  0.38925965     0.14200
C1249       C  0.69138082  0.95439109  0.12033766    -0.15400
C1250       C  0.72923685  0.96338770  0.12624899    -0.30500
H1251       H  0.66658868  0.92508806  0.13342326     0.13700
H1252       H  0.75344355  0.99294820  0.11274986     0.14200
C1253       C  0.92121427  0.95511011  0.13679736    -0.15400
C1254       C  0.89502617  0.96713235  0.14734348    -0.30500
H1255       H  0.91514397  0.92490808  0.14819084     0.13700
H1256       H  0.90139996  0.99695861  0.13358674     0.14200
C1257       C  0.73974656  0.78064310  0.13635230    -0.15400
C1258       C  0.70428416  0.75752685  0.11276942    -0.30500
H1259       H  0.76164543  0.77124572  0.13591412     0.13700
H1260       H  0.68367552  0.76876152  0.11175894     0.14200
loop_ 
_geom_bond_atom_site_label_1 
_geom_bond_atom_site_label_2 
_geom_bond_distance 
_geom_bond_site_symmetry_2 
_ccdc_geom_bond_type 
Fe1          O17   2.072       .  S
Fe1           O7   2.061       .  S
Fe1          O14   2.047       .  S
Fe1           O6   2.065       .  S
Fe1          O12   1.954       .  S
Fe2           O5   2.073       .  S
Fe2           O9   2.087       .  S
Fe2          O13   2.095       .  S
Fe2          O18   2.083       .  S
Fe2          O12   1.972       .  S
Fe3          O21   2.087       .  S
Fe3           O8   2.057       .  S
Fe3          O15   2.076       .  S
Fe3           O4   2.068       .  S
Fe3          O12   1.976       .  S
O4           C11   1.274       .  A
O5           C19   1.273       .  A
O6           C11   1.274       .  A
O7           C10   1.264       .  A
O8           C20   1.263       .  A
O9           C22   1.274       .  A
C10          O15   1.266       .  A
C10         C130   1.483       .  S
C11         C118   1.466       .  S
O13          C16   1.272       .  A
O14          C16   1.262       .  A
C16         C121   1.482       .  S
O17          C22   1.275       .  A
O18          C20   1.273       .  A
C19          O21   1.278       .  A
C19         C137   1.470       .  S
C20         C125   1.480       .  S
C22         C134   1.491       .  S
C23          C24   1.536       .  S
C23          C27   1.529       .  S
C23         C138   1.521       .  S
C23         C869   1.529   1_455  S
C24          H31   1.085       .  S
C24         C305   1.370   1_545  D
C25         C866   1.538   1_455  S
C25         C164   1.368       .  D
C25         C129   1.489       .  S
C26          C30   1.548       .  S
C26          C28   1.562       .  S
C26         C445   1.550       .  S
C26          H32   1.108       .  S
C27          H33   1.081       .  S
C27        C1148   1.377   1_455  D
C28         C587   1.377       .  D
C28         C634   1.502   1_554  S
C29         C443   1.531       .  S
C29          H34   1.086       .  S
C29         C310   1.368   1_545  D
C30         C169   1.358       .  D
C30         C133   1.483       .  S
C35          C41   1.525       .  S
C35          C39   1.528       .  S
C35         C126   1.522       .  S
C35         C876   1.545   1_455  S
C36         C455   1.545       .  S
C36          H43   1.085       .  S
C36         C317   1.374   1_545  D
C37          C38   1.539       .  S
C37         C176   1.375       .  D
C37         C122   1.495       .  S
C38          C40   1.557       .  S
C38         C462   1.541       .  S
C38          H44   1.108       .  S
C39          H45   1.082       .  S
C39        C1160   1.375   1_455  D
C40         C599   1.375       .  D
C40         C646   1.505       .  S
C41          H46   1.087       .  S
C41         C322   1.361   1_545  D
C42         C878   1.537   1_455  S
C42         C181   1.362       .  D
C42         C117   1.485       .  S
Fe47         O63   2.031       .  S
Fe47         O53   2.030       .  S
Fe47         O60   2.044       .  S
Fe47         O52   2.037       .  S
Fe47         O58   1.965       .  S
Fe48         O51   2.058       .  S
Fe48         O55   2.078       .  S
Fe48         O59   2.074       .  S
Fe48         O64   2.072       .  S
Fe48         O58   1.982       .  S
Fe49         O67   2.097       .  S
Fe49         O54   2.081       .  S
Fe49         O61   2.090       .  S
Fe49         O50   2.108       .  S
Fe49         O58   1.989       .  S
O50          C57   1.277       .  A
O51          C65   1.266       .  A
O52          C57   1.265       .  A
O53          C56   1.259       .  A
O54          C66   1.275       .  A
O55          C68   1.273       .  A
C56          O61   1.270       .  A
C56         C113   1.470       .  S
C57         C102   1.477       .  S
O59          C62   1.267       .  A
O60          C62   1.260       .  A
C62          C98   1.473       .  S
O63          C68   1.263       .  A
O64          C66   1.271       .  A
C65          O67   1.274       .  A
C65         C105   1.486       .  S
C66          C93   1.485       .  S
C68         C110   1.461       .  S
C69          C75   1.535       .  S
C69          C73   1.536       .  S
C69          C94   1.522       .  S
C69         C490   1.531       .  S
C70         C909   1.526   1_455  S
C70          H77   1.086       .  S
C70         C211   1.362       .  D
C71          C72   1.532   1_455  S
C71         C350   1.366   1_445  D
C71          C97   1.484       .  S
C72          C74   1.552   1_545  S
C72         C916   1.531       .  S
C72          H78   1.106   1_655  S
C73          H79   1.083       .  S
C73         C634   1.377       .  D
C74        C1193   1.378       .  D
C74        C1148   1.497   1_566  S
C75          H80   1.084       .  S
C75         C216   1.369       .  D
C76         C492   1.538       .  S
C76         C355   1.364   1_545  D
C76         C101   1.492       .  S
C81          C82   1.545       .  S
C81          C85   1.540       .  S
C81         C106   1.532       .  S
C81         C507   1.529       .  S
C82          H89   1.082       .  S
C82         C223   1.367       .  D
C83         C504   1.533       .  S
C83         C362   1.366   1_545  D
C83         C114   1.486       .  S
C84          C88   1.526       .  S
C84          C86   1.557   1_445  S
C84         C923   1.531   1_455  S
C84          H90   1.107       .  S
C85          H91   1.083       .  S
C85         C646   1.379       .  D
C86        C1205   1.376       .  D
C86        C1160   1.499   1_565  S
C87         C921   1.529   1_455  S
C87          H92   1.087       .  S
C87         C228   1.356       .  D
C88         C367   1.367   1_545  D
C88         C109   1.473       .  S
C93          H95   1.087       .  S
C93          C94   1.346       .  D
C94          H96   1.087       .  S
C97          H99   1.086       .  S
C97          C98   1.342       .  D
C98         H100   1.087   1_545  S
C101        H103   1.085       .  S
C101        C102   1.344       .  D
C102        H104   1.088       .  S
C105        H107   1.082       .  S
C105        C106   1.348       .  D
C106        H108   1.087       .  S
C109        H111   1.086       .  S
C109        C110   1.334       .  D
C110        H112   1.088       .  S
C113        H115   1.088       .  S
C113        C114   1.339       .  D
C114        H116   1.086       .  S
C117        H119   1.086       .  S
C117        C118   1.344       .  D
C118        H120   1.086       .  S
C121        H123   1.086       .  S
C121        C122   1.344       .  D
C122        H124   1.086       .  S
C125        H127   1.086       .  S
C125        C126   1.338       .  D
C126        H128   1.088       .  S
C129        H131   1.085       .  S
C129        C130   1.350       .  D
C130        H132   1.087       .  S
C133        H135   1.087       .  S
C133        C134   1.345       .  D
C134        H136   1.086       .  S
C137        H139   1.087       .  S
C137        C138   1.344       .  D
C138        H140   1.086       .  S
Fe141       O157   2.024       .  S
Fe141       O147   2.031       .  S
Fe141       O154   2.026       .  S
Fe141       O146   2.025       .  S
Fe141       O152   1.952       .  S
Fe142       O145   2.046       .  S
Fe142       O149   2.117       .  S
Fe142       O153   2.077       .  S
Fe142       O158   2.113       .  S
Fe142       O152   1.975       .  S
Fe143       O161   2.102       .  S
Fe143       O148   2.043       .  S
Fe143       O155   2.078       .  S
Fe143       O144   2.108       .  S
Fe143       O152   1.972       .  S
O144        C151   1.281       .  A
O145        C159   1.265       .  A
O146        C151   1.266       .  A
O147        C150   1.256       .  A
O148        C160   1.265       .  A
O149        C162   1.283       .  A
C150        O155   1.266       .  A
C150        C270   1.470       .  S
C151        C258   1.466       .  S
O153        C156   1.265       .  A
O154        C156   1.255       .  A
C156        C261   1.466       .  S
O157        C162   1.266       .  A
O158        C160   1.280       .  A
C159        O161   1.278       .  A
C159        C277   1.482       .  S
C160        C265   1.484       .  S
C162        C274   1.469       .  S
C163        C164   1.547       .  S
C163       C1009   1.523   1_455  S
C163        C167   1.535       .  S
C163        C278   1.528       .  S
C164        H171   1.083       .  S
C165       C1006   1.530   1_455  S
C165        C304   1.371       .  D
C165        C269   1.486       .  S
C166        C585   1.531       .  S
C166        C170   1.534       .  S
C166        C168   1.558       .  S
C166        H172   1.107       .  S
C167        H173   1.082       .  S
C167        C868   1.381       .  D
C168        C727   1.378       .  D
C168        C774   1.502   1_554  S
C169        C583   1.526       .  S
C169        H174   1.087       .  S
C170        C309   1.364       .  D
C170        C273   1.482       .  S
C175       C1016   1.548   1_455  S
C175        C181   1.521       .  S
C175        C179   1.535       .  S
C175        C266   1.531       .  S
C176        C595   1.546       .  S
C176        H183   1.082       .  S
C177        C178   1.527       .  S
C177        C316   1.371       .  D
C177        C262   1.482       .  S
C178        C602   1.527       .  S
C178        C180   1.546       .  S
C178        H184   1.107       .  S
C179        H185   1.082       .  S
C179        C880   1.378       .  D
C180        C739   1.377       .  D
C180        C786   1.492       .  S
C181        H186   1.086       .  S
C182       C1018   1.530   1_455  S
C182        C321   1.363       .  D
C182        C257   1.480       .  S
Fe187       O203   2.063       .  S
Fe187       O193   2.043       .  S
Fe187       O200   2.037       .  S
Fe187       O192   2.064       .  S
Fe187       O198   1.937       .  S
Fe188       O191   2.069       .  S
Fe188       O195   2.060       .  S
Fe188       O199   2.076       .  S
Fe188       O204   2.052       .  S
Fe188       O198   1.957       .  S
Fe189       O207   2.068       .  S
Fe189       O194   2.104       .  S
Fe189       O201   2.098       .  S
Fe189       O190   2.083       .  S
Fe189       O198   1.951       .  S
O190        C197   1.275       .  A
O191        C205   1.271       .  A
O192        C197   1.269       .  A
O193        C196   1.263       .  A
O194        C206   1.278       .  A
O195        C208   1.265       .  A
C196        O201   1.275       .  A
C196        C253   1.474       .  S
C197        C242   1.475       .  S
O199        C202   1.272       .  A
O200        C202   1.264       .  A
C202        C238   1.462       .  S
O203        C208   1.270       .  A
O204        C206   1.264       .  A
C205        O207   1.271       .  A
C205        C245   1.456       .  S
C206        C233   1.485       .  S
C208        C250   1.475       .  S
C209        C630   1.526       .  S
C209        C215   1.537       .  S
C209        C213   1.534       .  S
C209        C234   1.520       .  S
C210       C1049   1.531   1_455  S
C210        H217   1.086       .  S
C210        C351   1.366       .  D
C211        C212   1.529       .  S
C211        C237   1.476       .  S
C212       C1056   1.529   1_455  S
C212        C214   1.549   1_455  S
C212        H218   1.106       .  S
C213        H219   1.082       .  S
C213        C774   1.378       .  D
C214        C913   1.378       .  D
C214        C868   1.497   1_656  S
C215        H220   1.085       .  S
C215        C356   1.371       .  D
C216        C632   1.535       .  S
C216        C241   1.492       .  S
C221        C222   1.531       .  S
C221        C647   1.523       .  S
C221        C225   1.534       .  S
C221        C246   1.511       .  S
C222        H229   1.087       .  S
C222        C363   1.362       .  D
C223        C644   1.530       .  S
C223        C254   1.482       .  S
C224       C1063   1.537   1_455  S
C224        C228   1.538       .  S
C224        C226   1.558   1_455  S
C224        H230   1.106       .  S
C225        H231   1.082       .  S
C225        C786   1.382       .  D
C226        C925   1.382       .  D
C226        C880   1.503   1_655  S
C227       C1061   1.529   1_455  S
C227        H232   1.088       .  S
C227        C368   1.356       .  D
C228        C249   1.472       .  S
C233        H235   1.087       .  S
C233        C234   1.341       .  D
C234        H236   1.087       .  S
C237        H239   1.086       .  S
C237        C238   1.340       .  D
C238        H240   1.086       .  S
C241        H243   1.086       .  S
C241        C242   1.342       .  D
C242        H244   1.084       .  S
C245        H247   1.087       .  S
C245        C246   1.346       .  D
C246        H248   1.086       .  S
C249        H251   1.087       .  S
C249        C250   1.341       .  D
C250        H252   1.086       .  S
C253        H255   1.088       .  S
C253        C254   1.341       .  D
C254        H256   1.086       .  S
C257        H259   1.086       .  S
C257        C258   1.337       .  D
C258        H260   1.089       .  S
C261        H263   1.087       .  S
C261        C262   1.337       .  D
C262        H264   1.086       .  S
C265        H267   1.083       .  S
C265        C266   1.341       .  D
C266        H268   1.087       .  S
C269        H271   1.086       .  S
C269        C270   1.338       .  D
C270        H272   1.087       .  S
C273        H275   1.086       .  S
C273        C274   1.337       .  D
C274        H276   1.089       .  S
C277        H279   1.084       .  S
C277        C278   1.341       .  D
C278        H280   1.088       .  S
Fe281       O297   2.045       .  S
Fe281       O287   2.038       .  S
Fe281       O294   2.034       .  S
Fe281       O286   2.044       .  S
Fe281       O292   1.961       .  S
Fe282       O285   2.077       .  S
Fe282       O289   2.112       .  S
Fe282       O293   2.102       .  S
Fe282       O298   2.099       .  S
Fe282       O292   1.985       .  S
Fe283       O301   2.089       .  S
Fe283       O288   2.066       .  S
Fe283       O295   2.085       .  S
Fe283       O284   2.087       .  S
Fe283       O292   1.987       .  S
O284        C291   1.272       .  A
O285        C299   1.270       .  A
O286        C291   1.266       .  A
O287        C290   1.260       .  A
O288        C300   1.271       .  A
O289        C302   1.281       .  A
C290        O295   1.270       .  A
C290        C410   1.474       .  S
C291        C398   1.471       .  S
O293        C296   1.272       .  A
O294        C296   1.258       .  A
C296        C401   1.481       .  S
O297        C302   1.268       .  A
O298        C300   1.281       .  A
C299        O301   1.272       .  A
C299        C417   1.481       .  S
C300        C405   1.487       .  S
C302        C414   1.479       .  S
C303        C304   1.537       .  S
C303       C1149   1.531   1_455  S
C303        C307   1.536       .  S
C303        C418   1.530       .  S
C304        H311   1.085       .  S
C305       C1146   1.534   1_455  S
C305        C409   1.486       .  S
C306        C725   1.540       .  S
C306        C310   1.540       .  S
C306        C308   1.565   1_565  S
C306        H312   1.107       .  S
C307        H313   1.082       .  S
C307       C1008   1.379       .  D
C308        C447   1.371       .  D
C308        C494   1.503   1_544  S
C309        C723   1.525       .  S
C309        H314   1.087       .  S
C310        C413   1.494       .  S
C315       C1156   1.541   1_455  S
C315        C321   1.526       .  S
C315        C319   1.534       .  S
C315        C406   1.530       .  S
C316        C735   1.544       .  S
C316        H323   1.082       .  S
C317        C318   1.536       .  S
C317        C402   1.492       .  S
C318        C742   1.539       .  S
C318        C320   1.561   1_565  S
C318        H324   1.108       .  S
C319        H325   1.082       .  S
C319       C1020   1.378       .  D
C320        C459   1.373       .  D
C320        C506   1.502   1_545  S
C321        H326   1.087       .  S
C322       C1158   1.536   1_455  S
C322        C397   1.486       .  S
Fe327       O343   2.072       .  S
Fe327       O333   2.059       .  S
Fe327       O340   2.048       .  S
Fe327       O332   2.065       .  S
Fe327       O338   1.960       .  S
Fe328       O331   2.079       .  S
Fe328       O335   2.071       .  S
Fe328       O339   2.095       .  S
Fe328       O344   2.064       .  S
Fe328       O338   1.982       .  S
Fe329       O347   2.078       .  S
Fe329       O334   2.070       .  S
Fe329       O341   2.071       .  S
Fe329       O330   2.085       .  S
Fe329       O338   1.981       .  S
O330        C337   1.274       .  A
O331        C345   1.277       .  A
O332        C337   1.268       .  A
O333        C336   1.268       .  A
O334        C346   1.266       .  A
O335        C348   1.265       .  A
C336        O341   1.268       .  A
C336        C393   1.474       .  S
C337        C382   1.481       .  S
O339        C342   1.275       .  A
O340        C342   1.268       .  A
C342        C378   1.473       .  S
O343        C348   1.270       .  A
O344        C346   1.268       .  A
C345        O347   1.274       .  A
C345        C385   1.485       .  S
C346        C373   1.483       .  S
C348        C390   1.490       .  S
C349        C770   1.539       .  S
C349        C355   1.531       .  S
C349        C353   1.530       .  S
C349        C374   1.521       .  S
C350       C1189   1.537       .  S
C350        H357   1.085   1_655  S
C351        C352   1.536       .  S
C351        C377   1.488       .  S
C352       C1196   1.538   1_455  S
C352        C354   1.556       .  S
C352        H358   1.107       .  S
C353        H359   1.083       .  S
C353        C494   1.373       .  D
C354       C1053   1.378   1_455  D
C354       C1008   1.504   1_556  S
C355        H360   1.087       .  S
C356        C772   1.538       .  S
C356        C381   1.494       .  S
C361        C362   1.531       .  S
C361        C787   1.532       .  S
C361        C365   1.535       .  S
C361        C386   1.519       .  S
C362        H369   1.086       .  S
C363        C784   1.538       .  S
C363        C394   1.482       .  S
C364       C1203   1.544   1_455  S
C364        C368   1.548       .  S
C364        C366   1.562       .  S
C364        H370   1.106       .  S
C365        H371   1.083       .  S
C365        C506   1.377       .  D
C366       C1065   1.380   1_455  D
C366       C1020   1.503       .  S
C367       C1201   1.529   1_455  S
C367        H372   1.086       .  S
C368        C389   1.486       .  S
C373        H375   1.086       .  S
C373        C374   1.347       .  D
C374        H376   1.087       .  S
C377        H379   1.086       .  S
C377        C378   1.343       .  D
C378        H380   1.087       .  S
C381        H383   1.086       .  S
C381        C382   1.344       .  D
C382        H384   1.086       .  S
C385        H387   1.087       .  S
C385        C386   1.347       .  D
C386        H388   1.087       .  S
C389        H391   1.088       .  S
C389        C390   1.343       .  D
C390        H392   1.086       .  S
C393        H395   1.087       .  S
C393        C394   1.349       .  D
C394        H396   1.086       .  S
C397        H399   1.086       .  S
C397        C398   1.344       .  D
C398        H400   1.088       .  S
C401        H403   1.088   1_565  S
C401        C402   1.341       .  D
C402        H404   1.086       .  S
C405        H407   1.086       .  S
C405        C406   1.343       .  D
C406        H408   1.087       .  S
C409        H411   1.086       .  S
C409        C410   1.340       .  D
C410        H412   1.087       .  S
C413        H415   1.085       .  S
C413        C414   1.343       .  D
C414        H416   1.088       .  S
C417        H419   1.087       .  S
C417        C418   1.350       .  D
C418        H420   1.086       .  S
Fe421       O437   2.071       .  S
Fe421       O427   2.064       .  S
Fe421       O434   2.051       .  S
Fe421       O426   2.064       .  S
Fe421       O432   1.956       .  S
Fe422       O425   2.076       .  S
Fe422       O429   2.087       .  S
Fe422       O433   2.097       .  S
Fe422       O438   2.080       .  S
Fe422       O432   1.977       .  S
Fe423       O441   2.091       .  S
Fe423       O428   2.060       .  S
Fe423       O435   2.085       .  S
Fe423       O424   2.078       .  S
Fe423       O432   1.981       .  S
O424        C431   1.274       .  A
O425        C439   1.273       .  A
O426        C431   1.273       .  A
O427        C430   1.266       .  A
O428        C440   1.265       .  A
O429        C442   1.274       .  A
C430        O435   1.267       .  A
C430        C550   1.487       .  S
C431        C538   1.471       .  S
O433        C436   1.272       .  A
O434        C436   1.263       .  A
C436        C541   1.485       .  S
O437        C442   1.275       .  A
O438        C440   1.273       .  A
C439        O441   1.278       .  A
C439        C557   1.476       .  S
C440        C545   1.480       .  S
C442        C554   1.492       .  S
C443        C444   1.541       .  S
C443        C447   1.526       .  S
C443        C558   1.523       .  S
C444        H451   1.086       .  S
C444        C725   1.371   1_545  D
C445        C584   1.368       .  D
C445        C549   1.496       .  S
C446        C865   1.547       .  S
C446        C450   1.548       .  S
C446        C448   1.558       .  S
C446        H452   1.107       .  S
C447        H453   1.082       .  S
C448       C1007   1.378       .  D
C448       C1054   1.498   1_554  S
C449        C863   1.525       .  S
C449        H454   1.088       .  S
C449        C730   1.355   1_545  D
C450        C589   1.358       .  D
C450        C553   1.486       .  S
C455        C461   1.525       .  S
C455        C459   1.523       .  S
C455        C546   1.523       .  S
C456        C875   1.540       .  S
C456        H463   1.086       .  S
C456        C737   1.372   1_545  D
C457        C458   1.537       .  S
C457        C596   1.376       .  D
C457        C542   1.496       .  S
C458        C882   1.534       .  S
C458        C460   1.554       .  S
C458        H464   1.107       .  S
C459        H465   1.081       .  S
C460       C1019   1.376       .  D
C460       C1066   1.503       .  S
C461        H466   1.085       .  S
C461        C742   1.365   1_545  D
C462        C601   1.364       .  D
C462        C537   1.491       .  S
Fe467       O483   2.049       .  S
Fe467       O473   2.039       .  S
Fe467       O480   2.036       .  S
Fe467       O472   2.045       .  S
Fe467       O478   1.959       .  S
Fe468       O471   2.073       .  S
Fe468       O475   2.089       .  S
Fe468       O479   2.081       .  S
Fe468       O484   2.094       .  S
Fe468       O478   1.978       .  S
Fe469       O487   2.076       .  S
Fe469       O474   2.050       .  S
Fe469       O481   2.071       .  S
Fe469       O470   2.066       .  S
Fe469       O478   1.982       .  S
O470        C477   1.267       .  A
O471        C485   1.268       .  A
O472        C477   1.269       .  A
O473        C476   1.260       .  A
O474        C486   1.269       .  A
O475        C488   1.280       .  A
C476        O481   1.269       .  A
C476        C533   1.468       .  S
C477        C522   1.468       .  S
O479        C482   1.266       .  A
O480        C482   1.257       .  A
C482        C518   1.476       .  S
O483        C488   1.271       .  A
O484        C486   1.278       .  A
C485        O487   1.269       .  A
C485        C525   1.486       .  S
C486        C513   1.476       .  S
C488        C530   1.468       .  S
C489        C910   1.544       .  S
C489        C495   1.521       .  S
C489        C493   1.538       .  S
C489        C514   1.526       .  S
C490        H497   1.086       .  S
C490        C631   1.366       .  D
C491        C492   1.536       .  S
C491        C770   1.369   1_545  D
C491        C517   1.487       .  S
C492        C494   1.564   1_545  S
C492        H498   1.106       .  S
C493        H499   1.083       .  S
C493       C1054   1.379       .  D
C495        H500   1.087       .  S
C495        C636   1.360       .  D
C496        C912   1.536       .  S
C496        C775   1.357   1_545  D
C496        C521   1.462       .  S
C501        C502   1.539       .  S
C501        C927   1.530       .  S
C501        C505   1.535       .  S
C501        C526   1.531       .  S
C502        H509   1.083       .  S
C502        C643   1.369       .  D
C503        C924   1.523       .  S
C503        C782   1.370   1_545  D
C503        C534   1.478       .  S
C504        C508   1.531       .  S
C504        C506   1.560   1_545  S
C504        H510   1.106       .  S
C505        H511   1.082       .  S
C505       C1066   1.378       .  D
C507        H512   1.087       .  S
C507        C648   1.363       .  D
C508        C787   1.365   1_545  D
C508        C529   1.480       .  S
C513        H515   1.082       .  S
C513        C514   1.342       .  D
C514        H516   1.087       .  S
C517        H519   1.086       .  S
C517        C518   1.342       .  D
C518        H520   1.088       .  S
C521        H523   1.087       .  S
C521        C522   1.338       .  D
C522        H524   1.087       .  S
C525        H527   1.084       .  S
C525        C526   1.350       .  D
C526        H528   1.087       .  S
C529        H531   1.086       .  S
C529        C530   1.339       .  D
C530        H532   1.088       .  S
C533        H535   1.087   1_545  S
C533        C534   1.337       .  D
C534        H536   1.087       .  S
C537        H539   1.085       .  S
C537        C538   1.347       .  D
C538        H540   1.085       .  S
C541        H543   1.086       .  S
C541        C542   1.345       .  D
C542        H544   1.086       .  S
C545        H547   1.086       .  S
C545        C546   1.340       .  D
C546        H548   1.088       .  S
C549        H551   1.085       .  S
C549        C550   1.353       .  D
C550        H552   1.087       .  S
C553        H555   1.087       .  S
C553        C554   1.346       .  D
C554        H556   1.086       .  S
C557        H559   1.087       .  S
C557        C558   1.343       .  D
C558        H560   1.086       .  S
Fe561       O577   2.020       .  S
Fe561       O567   2.037       .  S
Fe561       O574   2.033       .  S
Fe561       O566   2.026       .  S
Fe561       O572   1.957       .  S
Fe562       O565   2.065       .  S
Fe562       O569   2.121       .  S
Fe562       O573   2.087       .  S
Fe562       O578   2.107       .  S
Fe562       O572   1.975       .  S
Fe563       O581   2.079       .  S
Fe563       O568   2.053       .  S
Fe563       O575   2.081       .  S
Fe563       O564   2.089       .  S
Fe563       O572   1.967       .  S
O564        C571   1.276       .  A
O565        C579   1.269       .  A
O566        C571   1.263       .  A
O567        C570   1.259       .  A
O568        C580   1.268       .  A
O569        C582   1.282       .  A
C570        O575   1.269       .  A
C570        C690   1.471       .  S
C571        C678   1.462       .  S
O573        C576   1.268       .  A
O574        C576   1.258       .  A
C576        C681   1.469       .  S
O577        C582   1.263       .  A
O578        C580   1.281       .  A
C579        O581   1.272       .  A
C579        C697   1.469       .  S
C580        C685   1.485       .  S
C582        C694   1.470       .  S
C583        C584   1.533       .  S
C583        C587   1.528       .  S
C583        C698   1.520       .  S
C584        H591   1.086       .  S
C585        C724   1.372       .  D
C585        C689   1.485       .  S
C586       C1005   1.527       .  S
C586        C590   1.532       .  S
C586        C588   1.555       .  S
C586        H592   1.108       .  S
C587        H593   1.081       .  S
C588       C1147   1.373       .  D
C588       C1194   1.495   1_554  S
C589       C1003   1.527       .  S
C589        H594   1.087       .  S
C590        C729   1.366       .  D
C590        C693   1.481       .  S
C595        C601   1.522       .  S
C595        C599   1.528       .  S
C595        C686   1.528       .  S
C596       C1015   1.549       .  S
C596        H603   1.083       .  S
C597        C598   1.529       .  S
C597        C736   1.369       .  D
C597        C682   1.489       .  S
C598       C1022   1.530       .  S
C598        C600   1.554       .  S
C598        H604   1.107       .  S
C599        H605   1.081       .  S
C600       C1159   1.378       .  D
C600       C1206   1.497       .  S
C601        H606   1.085       .  S
C602        C741   1.363       .  D
C602        C677   1.474       .  S
Fe607       O623   2.033       .  S
Fe607       O613   2.051       .  S
Fe607       O620   2.039       .  S
Fe607       O612   2.032       .  S
Fe607       O618   1.940       .  S
Fe608       O611   2.075       .  S
Fe608       O615   2.098       .  S
Fe608       O619   2.079       .  S
Fe608       O624   2.088       .  S
Fe608       O618   1.958       .  S
Fe609       O627   2.075       .  S
Fe609       O614   2.056       .  S
Fe609       O621   2.081       .  S
Fe609       O610   2.072       .  S
Fe609       O618   1.957       .  S
O610        C617   1.270       .  A
O611        C625   1.270       .  A
O612        C617   1.260       .  A
O613        C616   1.265       .  A
O614        C626   1.267       .  A
O615        C628   1.277       .  A
C616        O621   1.273       .  A
C616        C673   1.471       .  S
C617        C662   1.458       .  S
O619        C622   1.269       .  A
O620        C622   1.262       .  A
C622        C658   1.464       .  S
O623        C628   1.264       .  A
O624        C626   1.278       .  A
C625        O627   1.271       .  A
C625        C665   1.469       .  S
C626        C653   1.479       .  S
C628        C670   1.468       .  S
C629       C1050   1.537       .  S
C629        C635   1.524       .  S
C629        C633   1.530       .  S
C629        C654   1.512       .  S
C630        H637   1.086       .  S
C630        C771   1.362       .  D
C631        C632   1.530       .  S
C631        C657   1.483       .  S
C632        C634   1.558       .  S
C632        H638   1.106       .  S
C633        H639   1.083       .  S
C633       C1194   1.374       .  D
C635        H640   1.086       .  S
C635        C776   1.362       .  D
C636       C1052   1.526       .  S
C636        C661   1.469       .  S
C641        C642   1.532       .  S
C641       C1067   1.528       .  S
C641        C645   1.530       .  S
C641        C666   1.522       .  S
C642        H649   1.086       .  S
C642        C783   1.368       .  D
C643       C1064   1.532       .  S
C643        C674   1.488       .  S
C644        C648   1.529       .  S
C644        C646   1.555       .  S
C644        H650   1.106       .  S
C645        H651   1.082       .  S
C645       C1206   1.378       .  D
C647        H652   1.088       .  S
C647        C788   1.351       .  D
C648        C669   1.478       .  S
C653        H655   1.087       .  S
C653        C654   1.340       .  D
C654        H656   1.087       .  S
C657        H659   1.086       .  S
C657        C658   1.337       .  D
C658        H660   1.087       .  S
C661        H663   1.086       .  S
C661        C662   1.337       .  D
C662        H664   1.088       .  S
C665        H667   1.087       .  S
C665        C666   1.345       .  D
C666        H668   1.086       .  S
C669        H671   1.086       .  S
C669        C670   1.339       .  D
C670        H672   1.088       .  S
C673        H675   1.087       .  S
C673        C674   1.340       .  D
C674        H676   1.086       .  S
C677        H679   1.086       .  S
C677        C678   1.337       .  D
C678        H680   1.087       .  S
C681        H683   1.087       .  S
C681        C682   1.339       .  D
C682        H684   1.086       .  S
C685        H687   1.084       .  S
C685        C686   1.342       .  D
C686        H688   1.088       .  S
C689        H691   1.086       .  S
C689        C690   1.338       .  D
C690        H692   1.086       .  S
C693        H695   1.086       .  S
C693        C694   1.335       .  D
C694        H696   1.089       .  S
C697        H699   1.087       .  S
C697        C698   1.343       .  D
C698        H700   1.086       .  S
Fe701       O717   2.052       .  S
Fe701       O707   2.055       .  S
Fe701       O714   2.046       .  S
Fe701       O706   2.052       .  S
Fe701       O712   1.951       .  S
Fe702       O705   2.070       .  S
Fe702       O709   2.078       .  S
Fe702       O713   2.093       .  S
Fe702       O718   2.080       .  S
Fe702       O712   1.978       .  S
Fe703       O721   2.094       .  S
Fe703       O708   2.066       .  S
Fe703       O715   2.089       .  S
Fe703       O704   2.086       .  S
Fe703       O712   1.976       .  S
O704        C711   1.275       .  A
O705        C719   1.270       .  A
O706        C711   1.270       .  A
O707        C710   1.262       .  A
O708        C720   1.269       .  A
O709        C722   1.273       .  A
C710        O715   1.269       .  A
C710        C830   1.485       .  S
C711        C818   1.471       .  S
O713        C716   1.270       .  A
O714        C716   1.261       .  A
C716        C821   1.480       .  S
O717        C722   1.273       .  A
O718        C720   1.274       .  A
C719        O721   1.276       .  A
C719        C837   1.474       .  S
C720        C825   1.479       .  S
C722        C834   1.479       .  S
C723        C724   1.538       .  S
C723        C727   1.531       .  S
C723        C838   1.525       .  S
C724        H731   1.085       .  S
C725        C829   1.494       .  S
C726       C1145   1.535       .  S
C726        C730   1.535       .  S
C726        C728   1.552   1_565  S
C726        H732   1.107       .  S
C727        H733   1.081       .  S
C728        C867   1.378       .  D
C728        C914   1.488   1_544  S
C729       C1143   1.531       .  S
C729        H734   1.087       .  S
C730        C833   1.470       .  S
C735        C741   1.526       .  S
C735        C739   1.530       .  S
C735        C826   1.526       .  S
C736       C1155   1.546       .  S
C736        H743   1.080       .  S
C737        C738   1.539       .  S
C737        C822   1.491       .  S
C738       C1162   1.534       .  S
C738        C740   1.551   1_565  S
C738        H744   1.107       .  S
C739        H745   1.082       .  S
C740        C879   1.376       .  D
C740        C926   1.489   1_545  S
C741        H746   1.086       .  S
C742        C817   1.491       .  S
Fe747       O763   2.067       .  S
Fe747       O753   2.059       .  S
Fe747       O760   2.049       .  S
Fe747       O752   2.050       .  S
Fe747       O758   1.951       .  S
Fe748       O751   2.050       .  S
Fe748       O755   2.054       .  S
Fe748       O759   2.060       .  S
Fe748       O764   2.044       .  S
Fe748       O758   1.975       .  S
Fe749       O767   2.095       .  S
Fe749       O754   2.061       .  S
Fe749       O761   2.084       .  S
Fe749       O750   2.079       .  S
Fe749       O758   1.984       .  S
O750        C757   1.274       .  A
O751        C765   1.268       .  A
O752        C757   1.269       .  A
O753        C756   1.265       .  A
O754        C766   1.264       .  A
O755        C768   1.265       .  A
C756        O761   1.268       .  A
C756        C813   1.482       .  S
C757        C802   1.465       .  S
O759        C762   1.265       .  A
O760        C762   1.263       .  A
C762        C798   1.466       .  S
O763        C768   1.273       .  A
O764        C766   1.263       .  A
C765        O767   1.281       .  A
C765        C805   1.476       .  S
C766        C793   1.470       .  S
C768        C810   1.476       .  S
C769       C1190   1.535       .  S
C769        C775   1.526       .  S
C769        C773   1.526       .  S
C769        C794   1.511       .  S
C770        H777   1.085       .  S
C771        C772   1.534       .  S
C771        C797   1.482       .  S
C772        C774   1.556       .  S
C772        H778   1.106       .  S
C773        H779   1.083       .  S
C773        C914   1.375       .  D
C775        H780   1.087       .  S
C776       C1192   1.533       .  S
C776        C801   1.484       .  S
C781        C782   1.546       .  S
C781       C1207   1.523       .  S
C781        C785   1.533       .  S
C781        C806   1.520       .  S
C782        H789   1.085       .  S
C783       C1204   1.545       .  S
C783        C814   1.492       .  S
C784        C788   1.542       .  S
C784        C786   1.551       .  S
C784        H790   1.106       .  S
C785        H791   1.082       .  S
C785        C926   1.377       .  D
C787        H792   1.086       .  S
C788        C809   1.473       .  S
C793        H795   1.086       .  S
C793        C794   1.343       .  D
C794        H796   1.087       .  S
C797        H799   1.086       .  S
C797        C798   1.343       .  D
C798        H800   1.087       .  S
C801        H803   1.086       .  S
C801        C802   1.340       .  D
C802        H804   1.088       .  S
C805        H807   1.086       .  S
C805        C806   1.335       .  D
C806        H808   1.088       .  S
C809        H811   1.088       .  S
C809        C810   1.336       .  D
C810        H812   1.087       .  S
C813        H815   1.087       .  S
C813        C814   1.351       .  D
C814        H816   1.085       .  S
C817        H819   1.086       .  S
C817        C818   1.344       .  D
C818        H820   1.086   1_565  S
C821        H823   1.087   1_565  S
C821        C822   1.345       .  D
C822        H824   1.086       .  S
C825        H827   1.083       .  S
C825        C826   1.343       .  D
C826        H828   1.087       .  S
C829        H831   1.086       .  S
C829        C830   1.346       .  D
C830        H832   1.087       .  S
C833        H835   1.087       .  S
C833        C834   1.342       .  D
C834        H836   1.086       .  S
C837        H839   1.087       .  S
C837        C838   1.347       .  D
C838        H840   1.086       .  S
Fe841       O857   2.057       .  S
Fe841       O847   2.066       .  S
Fe841       O854   2.055       .  S
Fe841       O846   2.059       .  S
Fe841       O852   1.943       .  S
Fe842       O845   2.074       .  S
Fe842       O849   2.073       .  S
Fe842       O853   2.088       .  S
Fe842       O858   2.065       .  S
Fe842       O852   1.968       .  S
Fe843       O861   2.079       .  S
Fe843       O848   2.058       .  S
Fe843       O855   2.071       .  S
Fe843       O844   2.068       .  S
Fe843       O852   1.972       .  S
O844        C851   1.274       .  A
O845        C859   1.272       .  A
O846        C851   1.272       .  A
O847        C850   1.265       .  A
O848        C860   1.263       .  A
O849        C862   1.271       .  A
C850        O855   1.264       .  A
C850        C970   1.482       .  S
C851        C958   1.463       .  S
O853        C856   1.271       .  A
O854        C856   1.265       .  A
C856        C961   1.482       .  S
O857        C862   1.274       .  A
O858        C860   1.270       .  A
C859        O861   1.276       .  A
C859        C977   1.465       .  S
C860        C965   1.471       .  S
C862        C974   1.480       .  S
C863        C864   1.536       .  S
C863        C867   1.534       .  S
C863        C978   1.516       .  S
C864        H871   1.086       .  S
C864       C1145   1.368   1_545  D
C865       C1004   1.367       .  D
C865        C969   1.490       .  S
C866        C870   1.536       .  S
C866        C868   1.550   1_655  S
C866        H872   1.106       .  S
C867        H873   1.083       .  S
C869        H874   1.086       .  S
C869       C1150   1.365   1_545  D
C870       C1009   1.354       .  D
C870        C973   1.471       .  S
C875        C881   1.523       .  S
C875        C879   1.522       .  S
C875        C966   1.509       .  S
C876        H883   1.085       .  S
C876       C1157   1.373   1_545  D
C877        C878   1.537       .  S
C877       C1016   1.372       .  D
C877        C962   1.494       .  S
C878        C880   1.554   1_655  S
C878        H884   1.107       .  S
C879        H885   1.080       .  S
C881        H886   1.088       .  S
C881       C1162   1.351   1_545  D
C882       C1021   1.363       .  D
C882        C957   1.484       .  S
Fe887       O903   2.043       .  S
Fe887       O893   2.020       .  S
Fe887       O900   2.023       .  S
Fe887       O892   2.043       .  S
Fe887       O898   1.962       .  S
Fe888       O891   2.074       .  S
Fe888       O895   2.056       .  S
Fe888       O899   2.087       .  S
Fe888       O904   2.053       .  S
Fe888       O898   1.989       .  S
Fe889       O907   2.065       .  S
Fe889       O894   2.097       .  S
Fe889       O901   2.114       .  S
Fe889       O890   2.076       .  S
Fe889       O898   1.980       .  S
O890        C897   1.270       .  A
O891        C905   1.267       .  A
O892        C897   1.263       .  A
O893        C896   1.258       .  A
O894        C906   1.280       .  A
O895        C908   1.268       .  A
C896        O901   1.277       .  A
C896        C953   1.476       .  S
C897        C942   1.469       .  S
O899        C902   1.268       .  A
O900        C902   1.257       .  A
C902        C938   1.467       .  S
O903        C908   1.265       .  A
O904        C906   1.269       .  A
C905        O907   1.267       .  A
C905        C945   1.470       .  S
C906        C933   1.481       .  S
C908        C950   1.457       .  S
C909        C915   1.544       .  S
C909        C913   1.532       .  S
C909        C934   1.523       .  S
C910        H917   1.080       .  S
C910       C1051   1.366       .  D
C911        C912   1.533       .  S
C911       C1190   1.363   1_545  D
C911        C937   1.483       .  S
C912        C914   1.551   1_545  S
C912        H918   1.108       .  S
C913        H919   1.082       .  S
C915        H920   1.085       .  S
C915       C1056   1.369       .  D
C916       C1195   1.366   1_545  D
C916        C941   1.481       .  S
C921        C922   1.532       .  S
C921        C925   1.537       .  S
C921        C946   1.524       .  S
C922        H929   1.087       .  S
C922       C1063   1.365       .  D
C923       C1202   1.371   1_545  D
C923        C954   1.491       .  S
C924        C928   1.524       .  S
C924        C926   1.546   1_545  S
C924        H930   1.105       .  S
C925        H931   1.083       .  S
C927        H932   1.087       .  S
C927       C1068   1.365       .  D
C928       C1207   1.361   1_545  D
C928        C949   1.471       .  S
C933        H935   1.086       .  S
C933        C934   1.341       .  D
C934        H936   1.088       .  S
C937        H939   1.085       .  S
C937        C938   1.341       .  D
C938        H940   1.088       .  S
C941        H943   1.086       .  S
C941        C942   1.341       .  D
C942        H944   1.087   1_545  S
C945        H947   1.087       .  S
C945        C946   1.351       .  D
C946        H948   1.086       .  S
C949        H951   1.086       .  S
C949        C950   1.337       .  D
C950        H952   1.088       .  S
C953        H955   1.088   1_545  S
C953        C954   1.336       .  D
C954        H956   1.086       .  S
C957        H959   1.086       .  S
C957        C958   1.342       .  D
C958        H960   1.086       .  S
C961        H963   1.085       .  S
C961        C962   1.346       .  D
C962        H964   1.086       .  S
C965        H967   1.087       .  S
C965        C966   1.336       .  D
C966        H968   1.088       .  S
C969        H971   1.085       .  S
C969        C970   1.352       .  D
C970        H972   1.087       .  S
C973        H975   1.088       .  S
C973        C974   1.340       .  D
C974        H976   1.087       .  S
C977        H979   1.087       .  S
C977        C978   1.345       .  D
C978        H980   1.086       .  S
Fe981       O997   2.022       .  S
Fe981       O987   2.039       .  S
Fe981       O994   2.036       .  S
Fe981       O986   2.028       .  S
Fe981       O992   1.954       .  S
Fe982       O985   2.069       .  S
Fe982       O989   2.117       .  S
Fe982       O993   2.089       .  S
Fe982       O998   2.115       .  S
Fe982       O992   1.969       .  S
Fe983      O1001   2.073       .  S
Fe983       O988   2.046       .  S
Fe983       O995   2.075       .  S
Fe983       O984   2.082       .  S
Fe983       O992   1.964       .  S
O984        C991   1.274       .  A
O985        C999   1.269       .  A
O986        C991   1.262       .  A
O987        C990   1.260       .  A
O988       C1000   1.266       .  A
O989       C1002   1.281       .  A
C990        O995   1.269       .  A
C990       C1110   1.466       .  S
C991       C1098   1.460       .  S
O993        C996   1.271       .  A
O994        C996   1.260       .  A
C996       C1101   1.473       .  S
O997       C1002   1.262       .  A
O998       C1000   1.282       .  A
C999       O1001   1.271       .  A
C999       C1117   1.466       .  S
C1000      C1105   1.486       .  S
C1002      C1114   1.469       .  S
C1003      C1004   1.531       .  S
C1003      C1007   1.527       .  S
C1003      C1118   1.519       .  S
C1004      H1011   1.086       .  S
C1005      C1144   1.371       .  D
C1005      C1109   1.481       .  S
C1006      C1010   1.530       .  S
C1006      C1008   1.555   1_655  S
C1006      H1012   1.107       .  S
C1007      H1013   1.081       .  S
C1009      H1014   1.088       .  S
C1010      C1149   1.366       .  D
C1010      C1113   1.480       .  S
C1015      C1021   1.522       .  S
C1015      C1019   1.532       .  S
C1015      C1106   1.529       .  S
C1016      H1023   1.081       .  S
C1017      C1018   1.533       .  S
C1017      C1156   1.373       .  D
C1017      C1102   1.490       .  S
C1018      C1020   1.557   1_655  S
C1018      H1024   1.107       .  S
C1019      H1025   1.082       .  S
C1021      H1026   1.086       .  S
C1022      C1161   1.361       .  D
C1022      C1097   1.474       .  S
Fe1027     O1043   2.037       .  S
Fe1027     O1033   2.036       .  S
Fe1027     O1040   2.045       .  S
Fe1027     O1032   2.039       .  S
Fe1027     O1038   1.960       .  S
Fe1028     O1031   2.075       .  S
Fe1028     O1035   2.084       .  S
Fe1028     O1039   2.082       .  S
Fe1028     O1044   2.071       .  S
Fe1028     O1038   1.984       .  S
Fe1029     O1047   2.072       .  S
Fe1029     O1034   2.087       .  S
Fe1029     O1041   2.103       .  S
Fe1029     O1030   2.090       .  S
Fe1029     O1038   1.983       .  S
O1030      C1037   1.274       .  A
O1031      C1045   1.271       .  A
O1032      C1037   1.262       .  A
O1033      C1036   1.262       .  A
O1034      C1046   1.275       .  A
O1035      C1048   1.270       .  A
C1036      O1041   1.274       .  A
C1036      C1093   1.476       .  S
C1037      C1082   1.473       .  S
O1039      C1042   1.272       .  A
O1040      C1042   1.264       .  A
C1042      C1078   1.470       .  S
O1043      C1048   1.261       .  A
O1044      C1046   1.269       .  A
C1045      O1047   1.272       .  A
C1045      C1085   1.467       .  S
C1046      C1073   1.486       .  S
C1048      C1090   1.470       .  S
C1049      C1055   1.537       .  S
C1049      C1053   1.533       .  S
C1049      C1074   1.526       .  S
C1050      H1057   1.086       .  S
C1050      C1191   1.370       .  D
C1051      C1052   1.529       .  S
C1051      C1077   1.487       .  S
C1052      C1054   1.553       .  S
C1052      H1058   1.105       .  S
C1053      H1059   1.082       .  S
C1055      H1060   1.084       .  S
C1055      C1196   1.371       .  D
C1056      C1081   1.483       .  S
C1061      C1062   1.531       .  S
C1061      C1065   1.533       .  S
C1061      C1086   1.521       .  S
C1062      H1069   1.087       .  S
C1062      C1203   1.365       .  D
C1063      C1094   1.490       .  S
C1064      C1068   1.532       .  S
C1064      C1066   1.555       .  S
C1064      H1070   1.107       .  S
C1065      H1071   1.082       .  S
C1067      H1072   1.087       .  S
C1067      C1208   1.358       .  D
C1068      C1089   1.481       .  S
C1073      H1075   1.087       .  S
C1073      C1074   1.346       .  D
C1074      H1076   1.087       .  S
C1077      H1079   1.086       .  S
C1077      C1078   1.341       .  D
C1078      H1080   1.086       .  S
C1081      H1083   1.086       .  S
C1081      C1082   1.339       .  D
C1082      H1084   1.087       .  S
C1085      H1087   1.087       .  S
C1085      C1086   1.347       .  D
C1086      H1088   1.086       .  S
C1089      H1091   1.086       .  S
C1089      C1090   1.340       .  D
C1090      H1092   1.088       .  S
C1093      H1095   1.089       .  S
C1093      C1094   1.343       .  D
C1094      H1096   1.085   1_655  S
C1097      H1099   1.086       .  S
C1097      C1098   1.338       .  D
C1098      H1100   1.087       .  S
C1101      H1103   1.086       .  S
C1101      C1102   1.339       .  D
C1102      H1104   1.086       .  S
C1105      H1107   1.085       .  S
C1105      C1106   1.340       .  D
C1106      H1108   1.088       .  S
C1109      H1111   1.087       .  S
C1109      C1110   1.336       .  D
C1110      H1112   1.088       .  S
C1113      H1115   1.086       .  S
C1113      C1114   1.335       .  D
C1114      H1116   1.089       .  S
C1117      H1119   1.087       .  S
C1117      C1118   1.343       .  D
C1118      H1120   1.086       .  S
Fe1121     O1137   2.052       .  S
Fe1121     O1127   2.044       .  S
Fe1121     O1134   2.051       .  S
Fe1121     O1126   2.057       .  S
Fe1121     O1132   1.958       .  S
Fe1122     O1125   2.066       .  S
Fe1122     O1129   2.091       .  S
Fe1122     O1133   2.078       .  S
Fe1122     O1138   2.096       .  S
Fe1122     O1132   1.978       .  S
Fe1123     O1141   2.073       .  S
Fe1123     O1128   2.054       .  S
Fe1123     O1135   2.078       .  S
Fe1123     O1124   2.060       .  S
Fe1123     O1132   1.988       .  S
O1124      C1131   1.267       .  A
O1125      C1139   1.267       .  A
O1126      C1131   1.273       .  A
O1127      C1130   1.261       .  A
O1128      C1140   1.269       .  A
O1129      C1142   1.280       .  A
C1130      O1135   1.267       .  A
C1130      C1250   1.472       .  S
C1131      C1238   1.469       .  S
O1133      C1136   1.267       .  A
O1134      C1136   1.260       .  A
C1136      C1241   1.483       .  S
O1137      C1142   1.272       .  A
O1138      C1140   1.278       .  A
C1139      O1141   1.269       .  A
C1139      C1257   1.481       .  S
C1140      C1245   1.479       .  S
C1142      C1254   1.470       .  S
C1143      C1144   1.543       .  S
C1143      C1147   1.529       .  S
C1143      C1258   1.528       .  S
C1144      H1151   1.081       .  S
C1145      C1249   1.487       .  S
C1146      C1150   1.534       .  S
C1146      C1148   1.554   1_565  S
C1146      H1152   1.107       .  S
C1147      H1153   1.083       .  S
C1149      H1154   1.087       .  S
C1150      C1253   1.483       .  S
C1155      C1161   1.522       .  S
C1155      C1159   1.536       .  S
C1155      C1246   1.528       .  S
C1156      H1163   1.084       .  S
C1157      C1158   1.537       .  S
C1157      C1242   1.490       .  S
C1158      C1160   1.557   1_565  S
C1158      H1164   1.107       .  S
C1159      H1165   1.083       .  S
C1161      H1166   1.087       .  S
C1162      C1237   1.461       .  S
Fe1167     O1183   2.075       .  S
Fe1167     O1173   2.060       .  S
Fe1167     O1180   2.055       .  S
Fe1167     O1172   2.071       .  S
Fe1167     O1178   1.956       .  S
Fe1168     O1171   2.073       .  S
Fe1168     O1175   2.074       .  S
Fe1168     O1179   2.083       .  S
Fe1168     O1184   2.067       .  S
Fe1168     O1178   1.974       .  S
Fe1169     O1187   2.088       .  S
Fe1169     O1174   2.078       .  S
Fe1169     O1181   2.091       .  S
Fe1169     O1170   2.079       .  S
Fe1169     O1178   1.975       .  S
O1170      C1177   1.274       .  A
O1171      C1185   1.271       .  A
O1172      C1177   1.271       .  A
O1173      C1176   1.268       .  A
O1174      C1186   1.270       .  A
O1175      C1188   1.269       .  A
C1176      O1181   1.271       .  A
C1176      C1233   1.483       .  S
C1177      C1222   1.479       .  S
O1179      C1182   1.273       .  A
O1180      C1182   1.266       .  A
C1182      C1218   1.477       .  S
O1183      C1188   1.273       .  A
O1184      C1186   1.270       .  A
C1185      O1187   1.276       .  A
C1185      C1225   1.472       .  S
C1186      C1213   1.481       .  S
C1188      C1230   1.490       .  S
C1189      C1195   1.533       .  S
C1189      C1193   1.534       .  S
C1189      C1214   1.521       .  S
C1190      H1197   1.085       .  S
C1191      C1192   1.536       .  S
C1191      C1217   1.485       .  S
C1192      C1194   1.557       .  S
C1192      H1198   1.108       .  S
C1193      H1199   1.082       .  S
C1195      H1200   1.086       .  S
C1196      C1221   1.492       .  S
C1201      C1202   1.536       .  S
C1201      C1205   1.531       .  S
C1201      C1226   1.523       .  S
C1202      H1209   1.086       .  S
C1203      C1234   1.490       .  S
C1204      C1208   1.548       .  S
C1204      C1206   1.558       .  S
C1204      H1210   1.107       .  S
C1205      H1211   1.082       .  S
C1207      H1212   1.087       .  S
C1208      C1229   1.486       .  S
C1213      H1215   1.086       .  S
C1213      C1214   1.347       .  D
C1214      H1216   1.087       .  S
C1217      H1219   1.086       .  S
C1217      C1218   1.343       .  D
C1218      H1220   1.086       .  S
C1221      H1223   1.086       .  S
C1221      C1222   1.345       .  D
C1222      H1224   1.085       .  S
C1225      H1227   1.087       .  S
C1225      C1226   1.347       .  D
C1226      H1228   1.086       .  S
C1229      H1231   1.087       .  S
C1229      C1230   1.344       .  D
C1230      H1232   1.086       .  S
C1233      H1235   1.087       .  S
C1233      C1234   1.350       .  D
C1234      H1236   1.085   1_655  S
C1237      H1239   1.088       .  S
C1237      C1238   1.334       .  D
C1238      H1240   1.087       .  S
C1241      H1243   1.087   1_565  S
C1241      C1242   1.345       .  D
C1242      H1244   1.086       .  S
C1245      H1247   1.081       .  S
C1245      C1246   1.343       .  D
C1246      H1248   1.087       .  S
C1249      H1251   1.086       .  S
C1249      C1250   1.344       .  D
C1250      H1252   1.087       .  S
C1253      H1255   1.086       .  S
C1253      C1254   1.341       .  D
C1254      H1256   1.088       .  S
C1257      H1259   1.082       .  S
C1257      C1258   1.348       .  D
C1258      H1260   1.087       .  S
