geometry optimzed in LAMMPS
_audit_creation_date              2020-12-01 
_audit_creation_method            'lammps2cif' 
_symmetry_space_group_name_H-M    'P1' 
_symmetry_Int_Tables_number       1 
_symmetry_cell_setting            triclinic 
loop_ 
_symmetry_equiv_pos_as_xyz 
  x,y,z 
_cell_length_a                    24.78962041 
_cell_length_b                    43.95276834630077 
_cell_length_c                    44.86698748192173 
_cell_angle_alpha                 95.83462728862835 
_cell_angle_beta                  89.53048215440987 
_cell_angle_gamma                 88.97424452935299 
loop_ 
_atom_site_label 
_atom_site_type_symbol 
_atom_site_fract_x 
_atom_site_fract_y 
_atom_site_fract_z 
_atom_site_charge 
C1          C  0.23556455  0.12302250  0.11886193    -0.02300
C2          C  0.13304214  0.21399950  0.20607902     0.30200
C3          C  0.14173157  0.26975800  0.24026622     0.30200
C4          C  0.16340101  0.23944578  0.19184046    -0.06000
C5          C  0.07890005  0.23070068  0.21524388    -0.06800
C6          C  0.15819386  0.21373479  0.23794099    -0.06700
C7          C  0.16549754  0.26744301  0.20908623    -0.06000
C8          C  0.08293867  0.25942115  0.23287357    -0.06800
C9          C  0.16396133  0.24227270  0.25405376    -0.06700
C10         C  0.17039494  0.28989651  0.19028111    -0.32100
N11         N  0.17458932  0.27685503  0.16195268     0.14400
C12         C  0.16936853  0.24626043  0.16243175    -0.32100
H13         H  0.16793899  0.23018928  0.14289623     0.16400
C14         C  0.03092152  0.27101803  0.23675354    -0.31000
N15         N  0.99669171  0.25050747  0.22260025     0.13200
C16         C  0.02518761  0.22585213  0.20985679    -0.31000
C17         C  0.16872597  0.23858888  0.28394427    -0.31300
N18         N  0.16465890  0.20883143  0.28743080     0.13700
H19         H  0.17382969  0.25648253  0.30209811     0.16300
C20         C  0.15478357  0.19370543  0.26024935    -0.31300
H21         H  0.14423414  0.16982358  0.25734247     0.16300
H22         H  0.00804219  0.20611733  0.19725164     0.16300
H23         H  0.17057948  0.31430931  0.19682311     0.16400
H24         H  0.01872775  0.29305662  0.24789092     0.16300
C25         C  0.23980579  0.37233300  0.31973167    -0.02300
C26         C  0.41849625  0.09556741  0.20014484     0.30200
C27         C  0.49432091  0.09366994  0.24403858     0.30200
C28         C  0.39766645  0.10202961  0.23216276    -0.06000
C29         C  0.44621248  0.06388238  0.20173360    -0.06800
C30         C  0.46582902  0.11682476  0.19881155    -0.06700
C31         C  0.43607592  0.10142224  0.25499437    -0.06000
C32         C  0.48601432  0.06347324  0.22482523    -0.06800
C33         C  0.50453590  0.11560384  0.22091185    -0.06700
C34         C  0.40884569  0.09195602  0.27927019    -0.32100
N35         N  0.35626416  0.08748047  0.27225148     0.14400
C36         C  0.35054908  0.09180111  0.24314971    -0.32100
H37         H  0.31662178  0.08462216  0.22947327     0.16400
C38         C  0.48110324  0.03642113  0.23687671    -0.31000
N39         N  0.43944562  0.52090255  0.22397270     0.13200
C40         C  0.42085907  0.03602614  0.20149362    -0.31000
C41         C  0.55232811  0.12337678  0.20867125    -0.31300
N42         N  0.54306442  0.13148960  0.18092547     0.13700
H43         H  0.59181075  0.12004600  0.21805749     0.16300
C44         C  0.49069294  0.12674193  0.17440593    -0.31300
H45         H  0.47270803  0.12788812  0.15264036     0.16300
H46         H  0.38342132  0.52919904  0.19001274     0.16300
H47         H  0.42700791  0.08741160  0.30025587     0.16400
H48         H  0.50010027  0.52937174  0.25683961     0.16300
C49         C  0.70138287  0.16790898  0.09553892    -0.02300
C50         C  0.24870395  0.13384265  0.37398744    -0.02300
C51         C  0.80065525  0.23991944  0.19148680     0.30200
C52         C  0.79987315  0.27382744  0.24759318     0.30200
C53         C  0.77425397  0.22451550  0.21747774    -0.06000
C54         C  0.85600669  0.24864395  0.20506932    -0.06800
C55         C  0.77011019  0.27126395  0.19433132    -0.06700
C56         C  0.77311390  0.24192666  0.24535813    -0.06000
C57         C  0.85546201  0.26579252  0.23332996    -0.06800
C58         C  0.77095596  0.28850601  0.22233204    -0.06700
C59         C  0.74757345  0.22456449  0.26479770    -0.32100
N60         N  0.73627647  0.19658435  0.25100462     0.14400
C61         C  0.75173321  0.19640184  0.22178387    -0.32100
H62         H  0.74648745  0.17752284  0.20489340     0.16400
C63         C  0.90814633  0.26917916  0.24224987    -0.31000
N64         N  0.94033649  0.25442966  0.22059796     0.13200
C65         C  0.90922886  0.24176080  0.19791292    -0.31000
C66         C  0.74637884  0.31637429  0.21911492    -0.31300
N67         N  0.73038700  0.31661921  0.19036944     0.13700
H68         H  0.74075616  0.33495975  0.23627586     0.16300
C69         C  0.74153266  0.28865520  0.17580963    -0.31300
H70         H  0.72894765  0.28179649  0.15328015     0.16300
H71         H  0.92410631  0.22794954  0.17811378     0.16300
H72         H  0.73716947  0.23142453  0.28783743     0.16400
H73         H  0.92188558  0.28021750  0.26341729     0.16300
C74         C  0.65829097  0.40401667  0.10871829    -0.02300
C75         C  0.67052239  0.10845174  0.33431389    -0.02300
C76         C  0.40308636  0.41418373  0.23862653     0.30200
C77         C  0.48247541  0.41422141  0.19565195     0.30200
C78         C  0.38451762  0.41158054  0.20570258    -0.06000
C79         C  0.43431591  0.44395152  0.23926003    -0.06800
C80         C  0.44853062  0.38978858  0.23964774    -0.06700
C81         C  0.42458047  0.41059537  0.18342837    -0.06000
C82         C  0.47518092  0.44359527  0.21670548    -0.06800
C83         C  0.48808672  0.38932901  0.21709858    -0.06700
C84         C  0.40085529  0.42307894  0.15919424    -0.32100
N85         N  0.34906722  0.43160714  0.16576124     0.14400
C86         C  0.34128952  0.42710889  0.19473837    -0.32100
H87         H  0.30660373  0.43591443  0.20786667     0.16400
C88         C  0.47860812  0.97132985  0.20713014    -0.31000
N89         N  0.44167281  0.98901514  0.22258189     0.13200
C90         C  0.41580496  0.97321719  0.24225275    -0.31000
C91         C  0.53536656  0.37949222  0.22900873    -0.31300
N92         N  0.52930782  0.37596222  0.25864261     0.13700
H93         H  0.57184818  0.37844962  0.21615035     0.16300
C94         C  0.47585310  0.38196266  0.26473653    -0.31300
H95         H  0.45760305  0.38406351  0.28669932     0.16300
H96         H  0.38156244  0.98184143  0.25588354     0.16300
H97         H  0.42059143  0.42651346  0.13835165     0.16400
H98         H  0.50194825  0.97835075  0.18860113     0.16300
C99         C  0.23988644  0.36418497  0.07988964    -0.02300
C100        C  0.69048464  0.33965626  0.34797777    -0.02300
C101        C  0.51084171  0.24187341  0.05762701     0.30200
C102        C  0.43084085  0.28581467  0.05610230     0.30200
C103        C  0.52831831  0.27511095  0.06290494    -0.06000
C104        C  0.48299770  0.24283120  0.02716516    -0.06800
C105        C  0.46241558  0.23949867  0.07923596    -0.06700
C106        C  0.48814886  0.29800407  0.06309390    -0.06000
C107        C  0.43995054  0.26474305  0.02744625    -0.06800
C108        C  0.42275063  0.26269441  0.07930486    -0.06700
C109        C  0.51448539  0.32288256  0.05365099    -0.32100
N110        N  0.56651923  0.31576845  0.04625922     0.14400
C111        C  0.57467816  0.28644418  0.05155357    -0.32100
H112        H  0.61106097  0.27313666  0.04573442     0.16400
C113        C  0.43477288  0.27172407  0.50057997    -0.31000
N114        N  0.47429121  0.25887918  0.48333231     0.13200
C115        C  0.50459372  0.24024148  0.49877839    -0.31000
C116        C  0.37481977  0.24976100  0.08633534    -0.31300
N117        N  0.38073776  0.21924824  0.08819385     0.13700
H118        H  0.33807405  0.26248815  0.08651210     0.16300
C119        C  0.43471429  0.21321204  0.08422665    -0.31300
H120        H  0.45318194  0.19063377  0.08182818     0.16300
H121        H  0.54126905  0.22900698  0.49002343     0.16300
H122        H  0.49748701  0.34520287  0.05350559     0.16400
H123        H  0.40568874  0.28814466  0.49355129     0.16300
C124        C  0.51838114  0.25210459  0.37651472     0.30200
C125        C  0.43386392  0.21427684  0.38407051     0.30200
C126        C  0.53357016  0.21885925  0.38034705    -0.06000
C127        C  0.48330937  0.26117110  0.40491390    -0.06800
C128        C  0.47378689  0.25114033  0.35257595    -0.06700
C129        C  0.49038085  0.20008642  0.38496658    -0.06000
C130        C  0.43904593  0.24103909  0.40841478    -0.06800
C131        C  0.43112733  0.23078276  0.35571711    -0.06700
C132        C  0.50823198  0.17902684  0.40345592    -0.32100
N133        N  0.56176779  0.18189877  0.40833338     0.14400
C134        C  0.57615160  0.20767154  0.39612005    -0.32100
H135        H  0.61583905  0.21731314  0.39702622     0.16400
C136        C  0.43311644  0.23886592  0.43819308    -0.31000
N137        N  0.46975896  0.25642729  0.45259042     0.13200
C138        C  0.49982539  0.27065540  0.43357685    -0.31000
C139        C  0.38462502  0.24528135  0.34672268    -0.31300
N140        N  0.39608240  0.27361865  0.33956695     0.13700
H141        H  0.34412347  0.23745701  0.35019800     0.16300
C142        C  0.44972044  0.27723680  0.34347615    -0.31300
H143        H  0.46902081  0.29923730  0.34493543     0.16300
H144        H  0.53278447  0.28528648  0.44054781     0.16300
H145        H  0.48297524  0.16249371  0.41279445     0.16400
H146        H  0.40930345  0.22246863  0.44871762     0.16300
O147        O  0.04297106  0.05765355  0.03840961    -0.75100
O148        O  0.11110422  0.02832407  0.50952858    -0.54000
C149        C  0.09274617  0.04972214  0.03304543     0.78600
O150        O  0.86199019  0.45264611  0.03469153    -0.59700
O151        O  0.79390023  0.47469580  0.51028980    -0.52800
C152        C  0.81225240  0.46025290  0.03229285     0.70600
O153        O  0.03719427  0.43794392  0.02382654    -0.74300
O154        O  0.10673322  0.45830280  0.49972194    -0.54800
C155        C  0.08736326  0.44021597  0.01762540     0.76600
O156        O  0.86688831  0.07284656  0.02504310    -0.59400
O157        O  0.80044008  0.04452717  0.50164989    -0.52500
C158        C  0.81704803  0.06837415  0.01854249     0.73200
Zr159      Zr  0.95394669  0.04682777  0.01676330     2.54700
O160        O  0.93620170  0.04618684  0.07015369    -0.80000
O161        O  0.97002108  0.10150236  0.01861468    -0.93400
Zr162      Zr  0.95016236  0.45743710  0.51272302     2.64700
O163        O  0.96092341  0.46878135  0.06750724    -0.98400
O164        O  0.94103947  0.40221566  0.51060617    -0.80400
O165        O  0.00605628  0.50271479  0.01496011    -0.83800
O166        O  0.89827096  0.00361028  0.01556356    -2.18500
O167        O  0.86846852  0.05026568  0.40759203    -0.67200
O168        O  0.79986806  0.02804223  0.43106083    -0.51700
C169        C  0.81818910  0.04420519  0.41055169     0.71600
O170        O  0.04326017  0.43798311  0.40282551    -0.60100
O171        O  0.10925143  0.46256522  0.43075393    -0.52100
C172        C  0.09329116  0.44428959  0.40812562     0.73400
O173        O  0.86242747  0.43203319  0.41088092    -0.71500
O174        O  0.79640512  0.45870790  0.43911451    -0.50200
C175        C  0.81264479  0.43737954  0.41861179     0.74800
O176        O  0.04709800  0.05601118  0.41870887    -0.66800
O177        O  0.11260193  0.03139338  0.44295468    -0.54000
C178        C  0.09668735  0.05126579  0.42544680     0.73200
Zr179      Zr  0.95620998  0.03910888  0.42824393     2.77500
O180        O  0.96717484  0.03207525  0.37397520    -0.97600
O181        O  0.94711334  0.09454377  0.43074356    -0.78400
Zr182      Zr  0.95287162  0.44942091  0.42532757     2.70100
O183        O  0.94566327  0.43917908  0.37119806    -0.79600
O184        O  0.96247801  0.39560934  0.43329183    -0.98700
Zr185      Zr  0.06120632  0.49615877  0.47055139     2.21500
Zr186      Zr  0.84436046  0.00046949  0.47065626     2.11100
O187        O  0.90144346  0.99530070  0.42666596    -2.47400
O188        O  0.00878318  0.99354822  0.42624007    -0.79400
O189        O  0.90185498  0.04413758  0.47209335    -0.71600
O190        O  0.00545474  0.45196493  0.46896650    -2.32600
O191        O  0.00942601  0.04221747  0.47221758    -2.28800
O192        O  0.89678141  0.45402842  0.46904631    -0.73400
H193        H  0.87626628  0.50856104  0.03255609     0.78600
H194        H  0.02723423  0.43340935  0.46780995     0.79700
H195        H  0.88009496  0.99350122  0.40870980     0.81900
H196        H  0.03224300  0.05990098  0.47357824     0.79500
H197        H  0.94955045  0.39724516  0.53109891     0.42600
H198        H  0.92506030  0.38824589  0.43429247     0.41600
H199        H  0.94279041  0.45963485  0.36389242     0.41200
H200        H  0.93906970  0.01736061  0.36701837     0.39200
H201        H  0.96922079  0.10217496  0.44810752     0.42300
H202        H  0.00267657  0.10389259  0.50715266     0.37100
H203        H  0.94936194  0.06607465  0.07935893     0.43200
H204        H  0.99314245  0.48172636  0.07021446     0.39600
H205        H  0.95465644  0.05170868  0.36715156     0.44500
H206        H  0.94566815  0.10884981  0.00337960     0.43300
H207        H  0.93045142  0.48264855  0.07444514     0.43400
H208        H  0.97707172  0.38563417  0.41405568     0.43700
C209        C  0.73280073  0.39272664  0.35637110    -0.20100
C210        C  0.70910635  0.36868663  0.37058126    -0.06700
C211        C  0.70459853  0.37612471  0.40282555     0.14200
C212        C  0.73905275  0.39822918  0.41783863    -0.20200
C213        C  0.77226562  0.41675913  0.40230405    -0.06700
C214        C  0.76679752  0.41480660  0.37097516     0.14200
C215        C  0.79650803  0.43611374  0.35257704    -0.23500
H216        H  0.72465512  0.39459381  0.33305150     0.15400
H217        H  0.73826994  0.40192973  0.44212242     0.15500
C218        C  0.65829628  0.36854228  0.42252460    -0.23500
H219        H  0.78622238  0.43225825  0.32845519     0.05700
H220        H  0.84062069  0.43235549  0.35443349     0.08900
H221        H  0.78617097  0.46020058  0.36056226     0.08900
H222        H  0.67368121  0.35974338  0.44322051     0.08900
H223        H  0.62939717  0.35274953  0.41169331     0.08900
H224        H  0.63510518  0.38989824  0.42985477     0.05700
C225        C  0.62955634  0.29407184  0.33494228    -0.20100
C226        C  0.65592294  0.31210553  0.35843859    -0.06700
C227        C  0.64893101  0.30096784  0.38719019     0.14200
C228        C  0.60479325  0.28186081  0.39217771    -0.20200
C229        C  0.56858260  0.27142674  0.36941678    -0.06700
C230        C  0.58726714  0.27414074  0.33973119     0.14200
C231        C  0.56675832  0.25480900  0.31254137    -0.23500
H232        H  0.64103634  0.29641108  0.31194374     0.15400
H233        H  0.60180674  0.27304152  0.41364429     0.15500
C234        C  0.69081210  0.30304357  0.41143950    -0.23500
H235        H  0.53065535  0.26578413  0.30351469     0.05700
H236        H  0.55779779  0.23131940  0.31790999     0.08900
H237        H  0.59765828  0.25220331  0.29433509     0.08900
H238        H  0.67166794  0.30987346  0.43356762     0.08900
H239        H  0.72366608  0.31869953  0.40715833     0.08900
H240        H  0.70874143  0.27997890  0.41322886     0.05700
C241        C  0.14579608  0.38447125  0.06976975    -0.20100
C242        C  0.19749181  0.37665305  0.05780902    -0.06700
C243        C  0.21072124  0.38924757  0.03021418     0.14200
C244        C  0.17425197  0.40976184  0.01796394    -0.20200
C245        C  0.12456128  0.41845992  0.03161893    -0.06700
C246        C  0.10994699  0.40481141  0.05780039     0.14200
C247        C  0.05771134  0.41237490  0.07491149    -0.23500
H248        H  0.13311215  0.37575502  0.08989237     0.15400
H249        H  0.18348002  0.41547435  0.49565416     0.15500
C250        C  0.26215719  0.38183798  0.01245405    -0.23500
H251        H  0.05565626  0.40151649  0.09618448     0.05700
H252        H  0.02276441  0.40382594  0.06144255     0.08900
H253        H  0.05401563  0.43743914  0.08092924     0.08900
H254        H  0.26601421  0.35691401  0.00596572     0.08900
H255        H  0.29772918  0.39048661  0.02500537     0.08900
H256        H  0.26102413  0.38814093  0.48968064     0.05700
C257        C  0.33130796  0.29762216  0.04524509    -0.20100
C258        C  0.38276996  0.30863442  0.05290705    -0.06700
C259        C  0.38729833  0.34056229  0.05328986     0.14200
C260        C  0.34342530  0.35869070  0.06481843    -0.20200
C261        C  0.28997845  0.34753270  0.06287677    -0.06700
C262        C  0.28555349  0.31719910  0.04771821     0.14200
C263        C  0.23429156  0.30422386  0.03434894    -0.23500
H264        H  0.32666522  0.27370068  0.03728645     0.15400
H265        H  0.35227749  0.38211120  0.07142694     0.15500
C266        C  0.41310514  0.35319065  0.02665527    -0.23500
H267        H  0.24191490  0.29572179  0.01049759     0.05700
H268        H  0.20121777  0.32130678  0.03439879     0.08900
H269        H  0.22122680  0.28473185  0.04639591     0.08900
H270        H  0.38365812  0.35566411  0.51021170     0.08900
H271        H  0.44299835  0.33716968  0.01484437     0.08900
H272        H  0.43192435  0.37547719  0.03367211     0.05700
C273        C  0.55737750  0.37018703  0.31118644    -0.20100
C274        C  0.57127381  0.37053035  0.28074383    -0.06700
C275        C  0.62697849  0.36611560  0.27372608     0.14200
C276        C  0.66210781  0.35474463  0.29452162    -0.20200
C277        C  0.64943655  0.35408542  0.32524417    -0.06700
C278        C  0.59535706  0.36432644  0.33337935     0.14200
C279        C  0.57500025  0.36883169  0.36513109    -0.23500
H280        H  0.51644400  0.37534834  0.31842406     0.15400
H281        H  0.69941725  0.34630232  0.28510250     0.15500
C282        C  0.65317972  0.37596179  0.24614038    -0.23500
H283        H  0.53320141  0.37841786  0.36692346     0.05700
H284        H  0.60025753  0.38582519  0.37802473     0.08900
H285        H  0.57325759  0.34672013  0.37472046     0.08900
H286        H  0.63808343  0.39901438  0.24220958     0.08900
H287        H  0.64743368  0.35849521  0.22690795     0.08900
H288        H  0.69705164  0.37909350  0.24929355     0.05700
C289        C  0.25653601  0.41972552  0.15253650    -0.20100
C290        C  0.30538832  0.43211909  0.14459911    -0.06700
C291        C  0.31381639  0.43509540  0.11396412     0.14200
C292        C  0.28335256  0.41700139  0.09280695    -0.20200
C293        C  0.25057146  0.39359838  0.10203401    -0.06700
C294        C  0.22935667  0.39948190  0.13226573     0.14200
C295        C  0.18121354  0.38539650  0.14641429    -0.23500
H296        H  0.24364261  0.42171772  0.17576244     0.15400
H297        H  0.29063167  0.41875702  0.06931373     0.15500
C298        C  0.35383949  0.45701207  0.10342082    -0.23500
H299        H  0.15738268  0.36931962  0.13226946     0.05700
H300        H  0.19502747  0.37307016  0.16549218     0.08900
H301        H  0.15267715  0.40395791  0.15532785     0.08900
H302        H  0.38539683  0.44425932  0.08929066     0.08900
H303        H  0.37320472  0.47056832  0.12252532     0.08900
H304        H  0.33275663  0.47331564  0.08991922     0.05700
C305        C  0.80108669  0.08077804  0.37211795    -0.20100
C306        C  0.78128971  0.05713476  0.38780865    -0.06700
C307        C  0.73004352  0.04583079  0.37945822     0.14200
C308        C  0.69984376  0.05945042  0.35738474    -0.20200
C309        C  0.71659058  0.08552853  0.34353273    -0.06700
C310        C  0.77099260  0.09496848  0.35056101     0.14200
C311        C  0.80014921  0.12021246  0.33671816    -0.23500
H312        H  0.84107095  0.08912798  0.37742371     0.15400
H313        H  0.66030987  0.05092613  0.35311142     0.15500
C314        C  0.70578048  0.01988975  0.39417660    -0.23500
H315        H  0.84115792  0.12401514  0.34598854     0.05700
H316        H  0.77904795  0.14260263  0.34116124     0.08900
H317        H  0.80692050  0.11375513  0.31249330     0.08900
H318        H  0.69929038  0.02686867  0.41843254     0.08900
H319        H  0.73508390  0.49787290  0.38819754     0.08900
H320        H  0.66766026  0.50975176  0.37990721     0.05700
C321        C  0.67867022  0.13983026  0.38596122    -0.20100
C322        C  0.64750935  0.12007379  0.36624121    -0.06700
C323        C  0.59860272  0.10970911  0.37947084     0.14200
C324        C  0.57656256  0.12726210  0.40455952    -0.20200
C325        C  0.59708455  0.15619548  0.41314471    -0.06700
C326        C  0.65322817  0.15841612  0.40963414     0.14200
C327        C  0.68519895  0.17961100  0.43087939    -0.23500
H328        H  0.72052319  0.14361400  0.38105654     0.15400
H329        H  0.53731200  0.12139526  0.41281929     0.15500
C330        C  0.56604287  0.08176483  0.36913124    -0.23500
H331        H  0.72878873  0.17840815  0.42488016     0.05700
H332        H  0.68061999  0.17275369  0.45390099     0.08900
H333        H  0.67119373  0.20365624  0.43112360     0.08900
H334        H  0.58123632  0.06710184  0.34958506     0.08900
H335        H  0.52451520  0.08908486  0.36361757     0.08900
H336        H  0.56333418  0.06694289  0.38770090     0.05700
C337        C  0.75563251  0.41970542  0.09825061    -0.20100
C338        C  0.70068391  0.42847495  0.10002156    -0.06700
C339        C  0.68664083  0.45339370  0.08293469     0.14200
C340        C  0.72284627  0.46287187  0.06099472    -0.20200
C341        C  0.77473928  0.44980708  0.05618552    -0.06700
C342        C  0.79162209  0.42852751  0.07647200     0.14200
C343        C  0.84695175  0.41325200  0.07528893    -0.23500
H344        H  0.77158579  0.40455225  0.11322152     0.15400
H345        H  0.71052509  0.48096387  0.04768286     0.15500
C346        C  0.63593618  0.47243548  0.08922940    -0.23500
H347        H  0.85123349  0.39598409  0.09160123     0.05700
H348        H  0.87843961  0.43044001  0.08092693     0.08900
H349        H  0.85433593  0.40090658  0.05276393     0.08900
H350        H  0.63416105  0.48134671  0.11325602     0.08900
H351        H  0.59980012  0.45925145  0.08331752     0.08900
H352        H  0.63460473  0.49253406  0.07608968     0.05700
C353        C  0.65918608  0.33121286  0.05297851    -0.20100
C354        C  0.60860356  0.33702414  0.04132722    -0.06700
C355        C  0.59665813  0.36765466  0.03680952     0.14200
C356        C  0.62208065  0.39082934  0.05522127    -0.20200
C357        C  0.65502148  0.38277285  0.07866349    -0.06700
C358        C  0.68300652  0.35364232  0.07252230     0.14200
C359        C  0.73450725  0.34313915  0.08644894    -0.23500
H360        H  0.67520923  0.30804282  0.05170229     0.15400
H361        H  0.61243761  0.41442719  0.05289982     0.15500
C362        C  0.55709001  0.37577472  0.01360092    -0.23500
H363        H  0.76504359  0.33698618  0.06849259     0.05700
H364        H  0.72670061  0.32251764  0.09811419     0.08900
H365        H  0.75287866  0.35966135  0.10272822     0.08900
H366        H  0.52368215  0.39020310  0.02421295     0.08900
H367        H  0.54009612  0.35494980  0.00132846     0.08900
H368        H  0.57792834  0.38881402  0.99712114     0.05700
C369        C  0.51940190  0.40224735  0.14271686    -0.20100
C370        C  0.52876257  0.41521249  0.17196829    -0.06700
C371        C  0.57724152  0.43227249  0.17653601     0.14200
C372        C  0.61231134  0.43564882  0.15206449    -0.20200
C373        C  0.60491318  0.41965452  0.12341684    -0.06700
C374        C  0.55191231  0.40834665  0.11839462     0.14200
C375        C  0.52166681  0.40964412  0.08967955    -0.23500
H376        H  0.48369447  0.38891127  0.13791881     0.15400
H377        H  0.65060099  0.44659978  0.15668553     0.15500
C378        C  0.59694820  0.44527266  0.20684579    -0.23500
H379        H  0.47926856  0.41745006  0.09428047     0.05700
H380        H  0.52013109  0.38668773  0.07785578     0.08900
H381        H  0.53756335  0.42631926  0.07540986     0.08900
H382        H  0.57382541  0.43776283  0.22581394     0.08900
H383        H  0.59604095  0.47064115  0.20827866     0.08900
H384        H  0.63933833  0.43758933  0.20970732     0.05700
C385        C  0.78916322  0.27785639  0.30490117    -0.20100
C386        C  0.79794984  0.29253220  0.27924100    -0.06700
C387        C  0.80317901  0.32454443  0.28521001     0.14200
C388        C  0.77830151  0.33981523  0.31144273    -0.20200
C389        C  0.74396518  0.32401698  0.33046533    -0.06700
C390        C  0.76130286  0.29246660  0.33015412     0.14200
C391        C  0.76154096  0.27508152  0.35725537    -0.23500
H392        H  0.80542300  0.25492490  0.30535939     0.15400
H393        H  0.78124566  0.36412386  0.31341145     0.15500
C394        C  0.83615716  0.34299844  0.26552485    -0.23500
H395        H  0.78972654  0.25502852  0.35449471     0.05700
H396        H  0.72170296  0.26526843  0.36097855     0.08900
H397        H  0.77724518  0.28977905  0.37657315     0.08900
H398        H  0.81153974  0.36229440  0.25860718     0.08900
H399        H  0.85218904  0.32912264  0.24529654     0.08900
H400        H  0.87094311  0.35268930  0.27844108     0.05700
C401        C  0.71848308  0.12295172  0.28688747    -0.20100
C402        C  0.69187173  0.13380772  0.31431914    -0.06700
C403        C  0.67406549  0.16535847  0.31625385     0.14200
C404        C  0.67979541  0.18222343  0.29159567    -0.20200
C405        C  0.71369940  0.17275736  0.26738713    -0.06700
C406        C  0.73240296  0.14207730  0.26455103     0.14200
C407        C  0.76674318  0.12908977  0.23835339    -0.23500
H408        H  0.73078609  0.09924563  0.28333220     0.15400
H409        H  0.66246716  0.20510916  0.29268921     0.15500
C410        C  0.65335874  0.18408909  0.34387300    -0.23500
H411        H  0.77958272  0.10507962  0.24050169     0.05700
H412        H  0.80371848  0.14275150  0.23688384     0.08900
H413        H  0.74335044  0.12903022  0.21737747     0.08900
H414        H  0.68655889  0.18781012  0.36009544     0.08900
H415        H  0.61819078  0.17369706  0.35319464     0.08900
H416        H  0.63967926  0.20746640  0.33971609     0.05700
C417        C  0.66143420  0.33556424  0.15889725    -0.20100
C418        C  0.70696100  0.34156441  0.17604874    -0.06700
C419        C  0.73236327  0.36997887  0.17507719     0.14200
C420        C  0.71319264  0.39060160  0.15527344    -0.20200
C421        C  0.67334700  0.38234331  0.13367045    -0.06700
C422        C  0.64400788  0.35481506  0.13786190     0.14200
C423        C  0.59576593  0.34243912  0.12041457    -0.23500
H424        H  0.64103178  0.31417194  0.16072647     0.15400
H425        H  0.73067920  0.41303527  0.15632696     0.15500
C426        C  0.78125475  0.37814232  0.19358596    -0.23500
H427        H  0.60543679  0.31896902  0.10991235     0.05700
H428        H  0.58238646  0.35548131  0.10232192     0.08900
H429        H  0.56101853  0.34098254  0.13595055     0.08900
H430        H  0.81309502  0.36013786  0.18910284     0.08900
H431        H  0.77023808  0.38057400  0.21761166     0.08900
H432        H  0.79830255  0.40022505  0.18840635     0.05700
C433        C  0.16334598  0.10420085  0.37545420    -0.20100
C434        C  0.20854081  0.11553997  0.39201571    -0.06700
C435        C  0.21725859  0.10386319  0.42028044     0.14200
C436        C  0.18192828  0.08149479  0.42950999    -0.20200
C437        C  0.13683003  0.07140709  0.41276010    -0.06700
C438        C  0.12833193  0.08273611  0.38492365     0.14200
C439        C  0.08379213  0.07156326  0.36393020    -0.23500
H440        H  0.15501731  0.11208125  0.35401250     0.15400
H441        H  0.18923915  0.07188598  0.45020519     0.15500
C442        C  0.26237613  0.11376358  0.44139933    -0.23500
H443        H  0.08821261  0.07981941  0.34145880     0.05700
H444        H  0.04404410  0.08024234  0.37294724     0.08900
H445        H  0.08452598  0.04616968  0.36065676     0.08900
H446        H  0.25668311  0.13788988  0.45046348     0.08900
H447        H  0.30252100  0.11055244  0.43073855     0.08900
H448        H  0.26324799  0.10035861  0.46108003     0.05700
C449        C  0.35247440  0.13929356  0.37826449    -0.20100
C450        C  0.30081723  0.14818300  0.39013209    -0.06700
C451        C  0.29855332  0.17802320  0.40652269     0.14200
C452        C  0.34147847  0.19863512  0.40456522    -0.20200
C453        C  0.38812577  0.19091081  0.38702669    -0.06700
C454        C  0.39194198  0.16056814  0.37298752     0.14200
C455        C  0.43372690  0.14998189  0.34942530    -0.23500
H456        H  0.36100242  0.11678304  0.36805968     0.15400
H457        H  0.33632951  0.22167934  0.41534360     0.15500
C458        C  0.24958983  0.19028733  0.42407171    -0.23500
H459        H  0.41366933  0.13721780  0.33012554     0.05700
H460        H  0.46399985  0.13462320  0.35857981     0.08900
H461        H  0.45364526  0.16918886  0.34010423     0.08900
H462        H  0.26121828  0.19761961  0.44752316     0.08900
H463        H  0.21829460  0.17299544  0.42483756     0.08900
H464        H  0.23226038  0.21025813  0.41392832     0.05700
C465        C  0.78445246  0.12296545  0.02820079    -0.20100
C466        C  0.77864268  0.09215558  0.03345170    -0.06700
C467        C  0.74680264  0.08590678  0.05805228     0.14200
C468        C  0.72260845  0.11014990  0.07681281    -0.20200
C469        C  0.72721334  0.14172303  0.07206262    -0.06700
C470        C  0.76025600  0.14759566  0.04698246     0.14200
C471        C  0.77486793  0.17952085  0.04070460    -0.23500
H472        H  0.81116616  0.12789687  0.01012733     0.15400
H473        H  0.70170967  0.10364754  0.09625199     0.15500
C474        C  0.74104367  0.05349116  0.06578413    -0.23500
H475        H  0.79729819  0.17948189  0.01917017     0.05700
H476        H  0.80195322  0.18958865  0.05836732     0.08900
H477        H  0.73883427  0.19438659  0.03911671     0.08900
H478        H  0.78132253  0.04355169  0.07025303     0.08900
H479        H  0.72227877  0.03942815  0.04682127     0.08900
H480        H  0.71529485  0.05224620  0.08598426     0.05700
C481        C  0.58280962  0.22807216  0.09253505    -0.20100
C482        C  0.55974347  0.22068173  0.06441061    -0.06700
C483        C  0.58651952  0.19725599  0.04529165     0.14200
C484        C  0.63745146  0.18522203  0.05360223    -0.20200
C485        C  0.65958265  0.19143069  0.08273937    -0.06700
C486        C  0.63072092  0.21480843  0.10201498     0.14200
C487        C  0.64502250  0.22737769  0.13359384    -0.23500
H488        H  0.56257623  0.24541937  0.10787561     0.15400
H489        H  0.65657152  0.16801008  0.03789463     0.15500
C490        C  0.56023772  0.18084108  0.01832805    -0.23500
H491        H  0.61217614  0.22232796  0.14925870     0.05700
H492        H  0.64863166  0.25261463  0.13455330     0.08900
H493        H  0.68247473  0.21915490  0.14255860     0.08900
H494        H  0.58517720  0.18362108  0.49778400     0.08900
H495        H  0.51699079  0.18689909  0.01677026     0.08900
H496        H  0.56458291  0.15397961  0.51995776     0.05700
C497        C  0.76234387  0.21561161  0.10968467    -0.20100
C498        C  0.75085547  0.18451547  0.11227205    -0.06700
C499        C  0.78464576  0.17037978  0.13302978     0.14200
C500        C  0.80684825  0.18889379  0.15750088    -0.20200
C501        C  0.80100427  0.22090249  0.15994999    -0.06700
C502        C  0.79070498  0.23325445  0.13243183     0.14200
C503        C  0.81672496  0.26218956  0.12470972    -0.23500
H504        H  0.74719909  0.22668242  0.09087851     0.15400
H505        H  0.82532350  0.17823642  0.17570250     0.15500
C506        C  0.79286218  0.13627481  0.13205579    -0.23500
H507        H  0.78676250  0.27804033  0.11603065     0.05700
H508        H  0.84705672  0.25623196  0.10662759     0.08900
H509        H  0.83814623  0.27391706  0.14411191     0.08900
H510        H  0.81152356  0.12735051  0.11028702     0.08900
H511        H  0.75439726  0.12477464  0.13558876     0.08900
H512        H  0.82063568  0.13010522  0.14987893     0.05700
C513        C  0.57938084  0.07167295  0.26864729    -0.20100
C514        C  0.53862439  0.09476581  0.26833063    -0.06700
C515        C  0.54241365  0.12027276  0.28976047     0.14200
C516        C  0.57895417  0.11945086  0.31309975    -0.20200
C517        C  0.62162866  0.09743824  0.31368922    -0.06700
C518        C  0.62085286  0.07262181  0.29051330     0.14200
C519        C  0.66105961  0.04628096  0.28840672    -0.23500
H520        H  0.58076116  0.05323860  0.25079093     0.15400
H521        H  0.57643619  0.13831534  0.33009723     0.15500
C522        C  0.51243182  0.15015828  0.28693166    -0.23500
H523        H  0.65772359  0.03167662  0.26682214     0.05700
H524        H  0.65273206  0.03131295  0.30621117     0.08900
H525        H  0.70314531  0.05396684  0.28988070     0.08900
H526        H  0.46832155  0.14760800  0.28835135     0.08900
H527        H  0.52306031  0.15891770  0.26538251     0.08900
H528        H  0.52385204  0.16829444  0.30470317     0.05700
C529        C  0.23893753  0.11227697  0.31839402    -0.20100
C530        C  0.26333500  0.10950186  0.34637345    -0.06700
C531        C  0.29612686  0.08250583  0.34677987     0.14200
C532        C  0.32457625  0.07198344  0.32034472    -0.20200
C533        C  0.31343428  0.08467492  0.29354136    -0.06700
C534        C  0.26418165  0.10103158  0.29191292     0.14200
C535        C  0.23951986  0.10956081  0.26345959    -0.23500
H536        H  0.20299739  0.12616309  0.31659974     0.15400
H537        H  0.35779296  0.05572599  0.32105556     0.15500
C538        C  0.30395014  0.06567113  0.37403113    -0.23500
H539        H  0.19910665  0.12071312  0.26710570     0.05700
H540        H  0.23355435  0.08847490  0.24817554     0.08900
H541        H  0.26535326  0.12636001  0.25367338     0.08900
H542        H  0.32961057  0.04480075  0.36880047     0.08900
H543        H  0.26439472  0.05806879  0.38191284     0.08900
H544        H  0.32410669  0.07987655  0.39203926     0.05700
C545        C  0.57929638  0.12813128  0.13020485    -0.20100
C546        C  0.58345178  0.13901359  0.16029178    -0.06700
C547        C  0.62666526  0.15732408  0.16983077     0.14200
C548        C  0.66716914  0.16223799  0.14945781    -0.20200
C549        C  0.66285107  0.15360653  0.11818805    -0.06700
C550        C  0.61608471  0.13610310  0.10880406     0.14200
C551        C  0.60099069  0.12463738  0.07707407    -0.23500
H552        H  0.54593173  0.11363296  0.12307148     0.15400
H553        H  0.69904499  0.17599689  0.15882227     0.15500
C554        C  0.62777820  0.17481511  0.20057209    -0.23500
H555        H  0.59564485  0.09948005  0.07543191     0.05700
H556        H  0.63046130  0.12847708  0.05969810     0.08900
H557        H  0.56210164  0.13550359  0.07141360     0.08900
H558        H  0.65044650  0.16137573  0.21607202     0.08900
H559        H  0.58646697  0.18019235  0.20951773     0.08900
H560        H  0.64722648  0.19727105  0.19967287     0.05700
C561        C  0.16827807  0.41420419  0.33518750    -0.20100
C562        C  0.20798040  0.39393546  0.34479144    -0.06700
C563        C  0.21765918  0.39727450  0.37656379     0.14200
C564        C  0.17958029  0.41333967  0.39652227    -0.20200
C565        C  0.13486000  0.42920627  0.38626326    -0.06700
C566        C  0.13112079  0.43078238  0.35500859     0.14200
C567        C  0.08825263  0.45029937  0.34222774    -0.23500
H568        H  0.16416104  0.41598671  0.31152348     0.15400
H569        H  0.18558739  0.41398411  0.42048995     0.15500
C570        C  0.26971166  0.38801166  0.39065034    -0.23500
H571        H  0.09272271  0.45026992  0.31757031     0.05700
H572        H  0.08848731  0.97535508  0.35192413     0.08900
H573        H  0.04772637  0.44145284  0.34672037     0.08900
H574        H  0.30443203  0.38710995  0.37500533     0.08900
H575        H  0.26517267  0.36611523  0.40056701     0.08900
H576        H  0.28069108  0.40561412  0.40904143     0.05700
C577        C  0.30792960  0.30031727  0.35129947    -0.20100
C578        C  0.35788179  0.29839286  0.33612008    -0.06700
C579        C  0.37095718  0.32195887  0.31865993     0.14200
C580        C  0.33696876  0.34768839  0.31885455    -0.20200
C581        C  0.28403963  0.34966749  0.33191590    -0.06700
C582        C  0.27033637  0.32447318  0.34852368     0.14200
C583        C  0.21575875  0.32055105  0.36239420    -0.23500
H584        H  0.29715306  0.28233669  0.36492328     0.15400
H585        H  0.35018574  0.36324663  0.30365849     0.15500
C586        C  0.41773458  0.31922473  0.29664703    -0.23500
H587        H  0.22020275  0.31754125  0.38653252     0.05700
H588        H  0.19655411  0.29991072  0.35106261     0.08900
H589        H  0.18850982  0.34013003  0.36090083     0.08900
H590        H  0.43315189  0.29540909  0.29178505     0.08900
H591        H  0.45079141  0.33414048  0.30539632     0.08900
H592        H  0.40458677  0.32633677  0.27473028     0.05700
C593        C  0.31095229  0.41374642  0.31115995    -0.20100
C594        C  0.26828499  0.39515364  0.29942290    -0.06700
C595        C  0.26207750  0.39394366  0.26792517     0.14200
C596        C  0.30752371  0.39726274  0.25012624    -0.20200
C597        C  0.35525204  0.41128888  0.26130786    -0.06700
C598        C  0.35505256  0.42122276  0.29274470     0.14200
C599        C  0.40140868  0.43729380  0.30865998    -0.23500
H600        H  0.31440289  0.41830155  0.33522040     0.15400
H601        H  0.30402425  0.38844782  0.22690386     0.15500
C602        C  0.20904429  0.39003995  0.25169065    -0.23500
H603        H  0.41536952  0.42394818  0.32696951     0.05700
H604        H  0.38766891  0.46032352  0.31858474     0.08900
H605        H  0.43676213  0.43997006  0.29420885     0.08900
H606        H  0.17385268  0.38991235  0.26687439     0.08900
H607        H  0.20996386  0.36875957  0.23604999     0.08900
H608        H  0.20253721  0.40963959  0.23825343     0.05700
C609        C  0.14915419  0.18795802  0.33559751    -0.20100
C610        C  0.18436697  0.19538175  0.31302173    -0.06700
C611        C  0.23993701  0.19086144  0.31608688     0.07200
C612        C  0.25863724  0.17557444  0.33965562    -0.20200
C613        C  0.22324893  0.16239013  0.35976086    -0.06700
C614        C  0.16786886  0.17267366  0.35986153     0.14200
C615        C  0.12689620  0.16953356  0.38437325    -0.23500
H616        H  0.10677999  0.19410729  0.33418714     0.15400
H617        H  0.30114455  0.16987350  0.33925591     0.15500
C618        C  0.27953235  0.20022964  0.29311863    -0.23500
H619        H  0.11072360  0.19258196  0.39271837     0.05700
H620        H  0.14293911  0.15949079  0.40401731     0.08900
H621        H  0.09277084  0.15552599  0.37529272     0.08900
H622        H  0.27738302  0.22538484  0.29243505     0.08900
H623        H  0.27006521  0.18865624  0.27066155     0.08900
H624        H  0.32178287  0.19398092  0.29836124     0.05700
C625        C  0.24200759  0.30724524  0.14104948    -0.20100
C626        C  0.19232777  0.29337227  0.13785294    -0.06700
C627        C  0.15863482  0.29985547  0.11422305     0.14200
C628        C  0.17470688  0.32163449  0.09499592    -0.20200
C629        C  0.22303847  0.33837491  0.09974448    -0.06700
C630        C  0.25821484  0.32938928  0.12297616     0.14200
C631        C  0.31244378  0.34289865  0.13164243    -0.23500
H632        H  0.26759054  0.30160640  0.15930431     0.15400
H633        H  0.14850246  0.32571070  0.07668159     0.15500
C634        C  0.10520534  0.28443972  0.11004823    -0.23500
H635        H  0.32525342  0.36206151  0.11971272     0.05700
H636        H  0.31142469  0.35178947  0.15574530     0.08900
H637        H  0.34428038  0.32474529  0.12820098     0.08900
H638        H  0.08012540  0.28933251  0.13065992     0.08900
H639        H  0.11182254  0.25935473  0.10550050     0.08900
H640        H  0.08263824  0.29252850  0.09098981     0.05700
C641        C  0.23661835  0.33001209  0.27758706    -0.20100
C642        C  0.20490082  0.34842743  0.29899398    -0.06700
C643        C  0.14820999  0.34112097  0.29947312     0.14200
C644        C  0.12823676  0.31695359  0.27905056    -0.20200
C645        C  0.16198423  0.29865889  0.25901672    -0.06700
C646        C  0.21830585  0.30482656  0.25979135     0.14200
C647        C  0.26212159  0.28499580  0.24292911    -0.23500
H648        H  0.27846249  0.33527970  0.27465802     0.15400
H649        H  0.08594736  0.31154676  0.27959229     0.15500
C650        C  0.10598848  0.35811690  0.31939941    -0.23500
H651        H  0.30336508  0.29181866  0.25008513     0.05700
H652        H  0.26130124  0.28718392  0.21861704     0.08900
H653        H  0.25938946  0.26074498  0.24724189     0.08900
H654        H  0.09574350  0.38012602  0.31066831     0.08900
H655        H  0.11806169  0.36133096  0.34309317     0.08900
H656        H  0.06755318  0.34549630  0.31927310     0.05700
C657        C  0.19952550  0.10527395  0.06539202    -0.20100
C658        C  0.20224795  0.10015928  0.09623934    -0.06700
C659        C  0.16742826  0.07646165  0.10494427     0.14200
C660        C  0.13379602  0.06016984  0.08370686    -0.20200
C661        C  0.13349771  0.06536297  0.05355707    -0.06700
C662        C  0.16756813  0.08787243  0.04438986     0.14200
C663        C  0.17036770  0.09344621  0.01206023    -0.23500
H664        H  0.22214169  0.12323229  0.05679273     0.15400
H665        H  0.10676172  0.04307672  0.09074097     0.15500
C666        C  0.16352061  0.06725290  0.13621737    -0.23500
H667        H  0.19849631  0.11199716  0.00799203     0.05700
H668        H  0.12980004  0.09961857  0.00395509     0.08900
H669        H  0.18597033  0.57338538  0.99822530     0.08900
H670        H  0.14704154  0.08624028  0.15177313     0.08900
H671        H  0.20298838  0.05857384  0.14305272     0.08900
H672        H  0.13535076  0.04811417  0.13787194     0.05700
C673        C  0.35039110  0.16540934  0.08057745    -0.20100
C674        C  0.33827117  0.19637457  0.08946308    -0.06700
C675        C  0.28385057  0.20326455  0.09857979     0.14200
C676        C  0.24983581  0.17970282  0.10588768    -0.20200
C677        C  0.26451582  0.14835009  0.10125684    -0.06700
C678        C  0.31396107  0.14187636  0.08456910     0.14200
C679        C  0.33197859  0.11045739  0.07133126    -0.23500
H680        H  0.38859286  0.15907897  0.06969881     0.15400
H681        H  0.21211219  0.18700027  0.11591679     0.15500
C682        C  0.25878378  0.23467762  0.09976740    -0.23500
H683        H  0.34069906  0.11091934  0.04705842     0.05700
H684        H  0.30125846  0.09311716  0.07298188     0.08900
H685        H  0.36928183  0.10335601  0.08251133     0.08900
H686        H  0.26224160  0.24329805  0.07746661     0.08900
H687        H  0.27699528  0.24983662  0.11807563     0.08900
H688        H  0.21480394  0.23465877  0.10355066     0.05700
C689        C  0.35784854  0.07831356  0.15463546    -0.20100
C690        C  0.37496007  0.10143140  0.17654079    -0.06700
C691        C  0.35063275  0.13086978  0.17620943     0.14200
C692        C  0.30991248  0.13538079  0.15576233    -0.20200
C693        C  0.28631531  0.11159508  0.13649503    -0.06700
C694        C  0.31348962  0.08230264  0.13532239     0.14200
C695        C  0.30023186  0.05434343  0.11452805    -0.23500
H696        H  0.37933958  0.05666874  0.15207489     0.15400
H697        H  0.29278333  0.15828281  0.15645924     0.15500
C698        C  0.36522869  0.15837208  0.19772092    -0.23500
H699        H  0.33621952  0.04714227  0.10047075     0.05700
H700        H  0.26696431  0.05734892  0.09918893     0.08900
H701        H  0.28990750  0.03530034  0.12790151     0.08900
H702        H  0.40748316  0.16502568  0.19439365     0.08900
H703        H  0.35818073  0.15391192  0.22125600     0.08900
H704        H  0.34018435  0.17892599  0.19434915     0.05700
C705        C  0.17433835  0.16047601  0.19422612    -0.20100
C706        C  0.13914206  0.18315452  0.18514162    -0.06700
C707        C  0.12113244  0.17792339  0.15476209     0.14200
C708        C  0.14697041  0.15484768  0.13455546    -0.20200
C709        C  0.19228603  0.13774672  0.14313612    -0.06700
C710        C  0.19593495  0.13651451  0.17479238     0.14200
C711        C  0.22038026  0.11084887  0.19053862    -0.23500
H712        H  0.18970277  0.16151424  0.21645554     0.15400
H713        H  0.13652669  0.15331675  0.11104313     0.15500
C714        C  0.07830243  0.19720824  0.14169478    -0.23500
H715        H  0.18918211  0.10240259  0.20538466     0.05700
H716        H  0.25471375  0.11960038  0.20417192     0.08900
H717        H  0.23481579  0.09078963  0.17620066     0.08900
H718        H  0.06643517  0.21771064  0.15659530     0.08900
H719        H  0.04214808  0.18319658  0.13645971     0.08900
H720        H  0.09331794  0.20531393  0.12054877     0.05700
C721        C  0.23658207  0.12136685  0.61866664    -0.02300
C722        C  0.13549622  0.21333423  0.70606370     0.30200
C723        C  0.14308301  0.26931155  0.74025425     0.30200
C724        C  0.16468834  0.23902598  0.69169572    -0.06000
C725        C  0.08104895  0.22951319  0.71577110    -0.06800
C726        C  0.16145694  0.21331519  0.73767603    -0.06700
C727        C  0.16567463  0.26719561  0.70880535    -0.06000
C728        C  0.08465605  0.25825367  0.73345611    -0.06800
C729        C  0.16672392  0.24201613  0.75385115    -0.06700
C730        C  0.16801066  0.28951234  0.68971483    -0.32100
N731        N  0.17244318  0.27620505  0.66147867     0.14400
C732        C  0.17015849  0.24555780  0.66220720    -0.32100
H733        H  0.17151755  0.22924827  0.64270648     0.16400
C734        C  0.03258568  0.26938943  0.73788547    -0.31000
N735        N  0.99859917  0.24865855  0.72397782     0.13200
C736        C  0.02733233  0.22425281  0.71084458    -0.31000
C737        C  0.16926529  0.23830956  0.78381244    -0.31300
N738        N  0.16459366  0.20859724  0.78728863     0.13700
H739        H  0.17314489  0.25623180  0.80205933     0.16300
C740        C  0.15663086  0.19339212  0.75995756    -0.31300
H741        H  0.14595378  0.16953837  0.75688990     0.16300
H742        H  0.01037604  0.20454182  0.69810330     0.16300
H743        H  0.16694114  0.31397551  0.69601583     0.16400
H744        H  0.02012162  0.29139781  0.74896889     0.16300
C745        C  0.23897272  0.37301427  0.81997024    -0.02300
C746        C  0.41987738  0.09596049  0.70065802     0.30200
C747        C  0.49616387  0.09384927  0.74427490     0.30200
C748        C  0.39927801  0.10207826  0.73274245    -0.06000
C749        C  0.44765359  0.06432023  0.70201846    -0.06800
C750        C  0.46694536  0.11747912  0.69939631    -0.06700
C751        C  0.43784408  0.10124926  0.75546812    -0.06000
C752        C  0.48812856  0.06372237  0.72470671    -0.06800
C753        C  0.50576561  0.11623056  0.72140957    -0.06700
C754        C  0.41067043  0.09159988  0.77973676    -0.32100
N755        N  0.35796336  0.08735557  0.77280799     0.14400
C756        C  0.35229348  0.09170649  0.74371453    -0.32100
H757        H  0.31836670  0.08454717  0.73003496     0.16400
C758        C  0.48395520  0.03631140  0.73632318    -0.31000
N759        N  0.43744957  0.52081694  0.72148159     0.13200
C760        C  0.42175100  0.03665509  0.70207783    -0.31000
C761        C  0.55320591  0.12498045  0.70942830    -0.31300
N762        N  0.54366386  0.13345937  0.68182543     0.13700
H763        H  0.59281832  0.12196864  0.71878284     0.16300
C764        C  0.49140175  0.12819534  0.67521769    -0.31300
H765        H  0.47340673  0.12938233  0.65345865     0.16300
H766        H  0.37994073  0.53016548  0.68871134     0.16300
H767        H  0.42883920  0.08698428  0.80070015     0.16400
H768        H  0.49757213  0.52849639  0.75467330     0.16300
C769        C  0.70411822  0.16705961  0.59607300    -0.02300
C770        C  0.24787636  0.13405019  0.87417418    -0.02300
C771        C  0.80399024  0.23883445  0.69138834     0.30200
C772        C  0.80169760  0.27316682  0.74737725     0.30200
C773        C  0.77790765  0.22340103  0.71738006    -0.06000
C774        C  0.85878802  0.24811678  0.70511312    -0.06800
C775        C  0.77264796  0.26984503  0.69390869    -0.06700
C776        C  0.77612791  0.24096717  0.74523676    -0.06000
C777        C  0.85762404  0.26548004  0.73330610    -0.06800
C778        C  0.77252222  0.28726949  0.72185781    -0.06700
C779        C  0.75154145  0.22333233  0.76473436    -0.32100
N780        N  0.74132166  0.19526849  0.75089760     0.14400
C781        C  0.75638114  0.19507807  0.72169520    -0.32100
H782        H  0.75123738  0.17602379  0.70494833     0.16400
C783        C  0.91003663  0.26813946  0.74285277    -0.31000
N784        N  0.94242073  0.25280099  0.72163339     0.13200
C785        C  0.91184028  0.24040680  0.69865314    -0.31000
C786        C  0.74713679  0.31482363  0.71831983    -0.31300
N787        N  0.73194613  0.31467774  0.68942830     0.13700
H788        H  0.74046015  0.33352895  0.73528452     0.16300
C789        C  0.74432464  0.28685679  0.67499851    -0.31300
H790        H  0.73286100  0.27991386  0.65228872     0.16300
H791        H  0.92688398  0.22609604  0.67920767     0.16300
H792        H  0.74055530  0.23000187  0.78774286     0.16400
H793        H  0.92335930  0.27891509  0.76421926     0.16300
C794        C  0.65709645  0.40025727  0.60723207    -0.02300
C795        C  0.67363567  0.10900594  0.83434473    -0.02300
C796        C  0.40132802  0.41477251  0.73866211     0.30200
C797        C  0.48070755  0.41348905  0.69543558     0.30200
C798        C  0.38284497  0.41082272  0.70570921    -0.06000
C799        C  0.43205892  0.44456054  0.73811925    -0.06800
C800        C  0.44726334  0.39086061  0.74064129    -0.06700
C801        C  0.42294930  0.40912426  0.68336018    -0.06000
C802        C  0.47293304  0.44358589  0.71548148    -0.06800
C803        C  0.48648452  0.38953602  0.71784977    -0.06700
C804        C  0.39943538  0.42106040  0.65880711    -0.32100
N805        N  0.34791780  0.43009527  0.66524374     0.14400
C806        C  0.33982254  0.42617716  0.69430687    -0.32100
H807        H  0.30528850  0.43554827  0.70723940     0.16400
C808        C  0.47749690  0.97120644  0.70606471    -0.31000
N809        N  0.44200937  0.98921723  0.72227567     0.13200
C810        C  0.41473263  0.97319675  0.74131068    -0.31000
C811        C  0.53381197  0.37984546  0.72971988    -0.31300
N812        N  0.52837028  0.37752043  0.75958780     0.13700
H813        H  0.56998522  0.37798310  0.71658422     0.16300
C814        C  0.47517833  0.38418600  0.76597889    -0.31300
H815        H  0.45758357  0.38731517  0.78811221     0.16300
H816        H  0.38099711  0.98202023  0.75523876     0.16300
H817        H  0.41929132  0.42401105  0.63787146     0.16400
H818        H  0.50112476  0.97828477  0.68767219     0.16300
C819        C  0.23996942  0.36234554  0.57954137    -0.02300
C820        C  0.69023146  0.34018110  0.84777455    -0.02300
C821        C  0.51200531  0.23957702  0.55782434     0.30200
C822        C  0.43205714  0.28369982  0.55687051     0.30200
C823        C  0.52974304  0.27271619  0.56278756    -0.06000
C824        C  0.48331467  0.24053194  0.52749070    -0.06800
C825        C  0.46413436  0.23743301  0.57986301    -0.06700
C826        C  0.48974666  0.29575007  0.56319806    -0.06000
C827        C  0.44017658  0.26249584  0.52821557    -0.06800
C828        C  0.42456360  0.26071663  0.58028233    -0.06700
C829        C  0.51610284  0.32018744  0.55287910    -0.32100
N830        N  0.56773194  0.31267844  0.54485921     0.14400
C831        C  0.57584604  0.28356834  0.55071859    -0.32100
H832        H  0.61185259  0.27000314  0.54464064     0.16400
C833        C  0.43502318  0.27356514  0.99959799    -0.31000
N834        N  0.47454562  0.26016389  0.98265486     0.13200
C835        C  0.50478118  0.24203703  0.99861176    -0.31000
C836        C  0.37673843  0.24789170  0.58781720    -0.31300
N837        N  0.38250073  0.21730677  0.58925246     0.13700
H838        H  0.34009462  0.26081896  0.58888118     0.16300
C839        C  0.43645213  0.21123444  0.58502149    -0.31300
H840        H  0.45502074  0.18869952  0.58243655     0.16300
H841        H  0.54169620  0.23081367  0.99023432     0.16300
H842        H  0.49941630  0.34250548  0.55257515     0.16400
H843        H  0.40620295  0.28991465  0.99218686     0.16300
C844        C  0.51800298  0.25221386  0.87574629     0.30200
C845        C  0.43401104  0.21394455  0.88321640     0.30200
C846        C  0.53360665  0.21889475  0.87911165    -0.06000
C847        C  0.48316511  0.26087153  0.90420149    -0.06800
C848        C  0.47316520  0.25139234  0.85195814    -0.06700
C849        C  0.49068554  0.19980065  0.88354062    -0.06000
C850        C  0.43971441  0.24036613  0.90788383    -0.06800
C851        C  0.43064302  0.23094790  0.85507111    -0.06700
C852        C  0.50907291  0.17844229  0.90160930    -0.32100
N853        N  0.56241533  0.18180041  0.90673959     0.14400
C854        C  0.57639991  0.20775162  0.89473470    -0.32100
H855        H  0.61587927  0.21766766  0.89585772     0.16400
C856        C  0.43460402  0.23816141  0.93774174    -0.31000
N857        N  0.47027564  0.25666128  0.95191060     0.13200
C858        C  0.49935113  0.27111479  0.93266753    -0.31000
C859        C  0.38410185  0.24554080  0.84612335    -0.31300
N860        N  0.39548252  0.27390080  0.83879226     0.13700
H861        H  0.34366225  0.23762772  0.84955591     0.16300
C862        C  0.44910814  0.27750086  0.84286688    -0.31300
H863        H  0.46843928  0.29949075  0.84447347     0.16300
H864        H  0.53125074  0.28661427  0.93938680     0.16300
H865        H  0.48425321  0.16160919  0.91078234     0.16400
H866        H  0.41143702  0.22161735  0.94846129     0.16300
O867        O  0.04580250  0.05610203  0.53711179    -0.75100
O868        O  0.10898285  0.02971823  0.01144827    -0.54000
C869        C  0.09545351  0.04805740  0.53149061     0.78600
O870        O  0.86086675  0.44989766  0.53284548    -0.59700
O871        O  0.79481471  0.47655733  0.01151252    -0.52800
C872        C  0.81104521  0.45755810  0.53043465     0.70600
O873        O  0.03802684  0.43645629  0.52337851    -0.74300
O874        O  0.10600313  0.45922921  0.99993177    -0.54800
C875        C  0.08828204  0.43916613  0.51734310     0.76600
O876        O  0.86857617  0.07193032  0.52512349    -0.59400
O877        O  0.79954933  0.04491840  0.00148361    -0.52500
C878        C  0.81855903  0.06760623  0.51892573     0.73200
Zr879      Zr  0.95574719  0.04636901  0.51602430     2.54700
O880        O  0.93934828  0.04608148  0.56959498    -0.80000
O881        O  0.96965762  0.10136636  0.51913692    -0.93400
Zr882      Zr  0.95019067  0.45957184  0.01342986     2.64700
O883        O  0.95998008  0.46548639  0.56691500    -0.98400
O884        O  0.93913536  0.40470734  0.01369249    -0.80400
O885        O  0.00577855  0.50069049  0.51467391    -0.83800
O886        O  0.89941358  0.00344266  0.51464593    -2.18500
O887        O  0.86891543  0.05008759  0.90840306    -0.67200
O888        O  0.79984827  0.02796269  0.93163647    -0.51700
C889        C  0.81850627  0.04426095  0.91136002     0.71600
O890        O  0.04346941  0.43834369  0.90383197    -0.60100
O891        O  0.10943643  0.46343871  0.93129811    -0.52100
C892        C  0.09348264  0.44489125  0.90892532     0.73400
O893        O  0.86259701  0.43269200  0.91103230    -0.71500
O894        O  0.79661292  0.45948998  0.93918834    -0.50200
C895        C  0.81283043  0.43813257  0.91866193     0.74800
O896        O  0.04769871  0.05622530  0.91997980    -0.66800
O897        O  0.11294628  0.03202707  0.94485558    -0.54000
C898        C  0.09719801  0.05164845  0.92703699     0.73200
Zr899      Zr  0.95680795  0.03881529  0.92886247     2.77500
O900        O  0.96953246  0.02961298  0.87477350    -0.97600
O901        O  0.94793914  0.09408907  0.92918898    -0.78400
Zr902      Zr  0.95265427  0.45023307  0.92568686     2.70100
O903        O  0.94576054  0.44313182  0.87136672    -0.79600
O904        O  0.95951908  0.39572851  0.93115665    -0.98700
Zr905      Zr  0.06090027  0.49710904  0.97059503     2.21500
Zr906      Zr  0.84445701  0.00047597  0.97112520     2.11100
O907        O  0.90216920  0.99498608  0.92734560    -2.47400
O908        O  0.00988782  0.99352646  0.92761511    -0.79400
O909        O  0.90146830  0.04422923  0.97239616    -0.71600
O910        O  0.00495500  0.45307223  0.96948331    -2.32600
O911        O  0.00865967  0.04242210  0.97331861    -2.28800
O912        O  0.89694538  0.45514002  0.96967541    -0.73400
H913        H  0.87560785  0.50608287  0.53257238     0.78600
H914        H  0.02648832  0.43446755  0.96851475     0.79700
H915        H  0.88097519  0.99309199  0.90934756     0.81900
H916        H  0.03095765  0.06023215  0.97475951     0.79500
H917        H  0.93439507  0.39705623  0.99237696     0.42600
H918        H  0.94754788  0.38565147  0.91165106     0.41600
H919        H  0.93645971  0.46370019  0.86556318     0.41200
H920        H  0.99977484  0.01453991  0.87196903     0.39200
H921        H  0.96207413  0.09839867  0.90937369     0.42300
H922        H  0.95441152  0.11027619  0.03806302     0.37100
H923        H  0.97346018  0.03827096  0.57755559     0.43200
H924        H  0.98968950  0.48019280  0.57007704     0.39600
H925        H  0.93750331  0.01802228  0.86756103     0.44500
H926        H  0.98048279  0.10710979  0.54012873     0.43300
H927        H  0.92736322  0.47738737  0.57419530     0.43400
H928        H  0.99871365  0.39108253  0.93156656     0.43700
C929        C  0.73368868  0.39309536  0.85623671    -0.20100
C930        C  0.70976952  0.36907843  0.87043778    -0.06700
C931        C  0.70529922  0.37662771  0.90272574     0.14200
C932        C  0.73968221  0.39877307  0.91773079    -0.20200
C933        C  0.77256342  0.41746883  0.90225523    -0.06700
C934        C  0.76719369  0.41544392  0.87091066     0.14200
C935        C  0.79603972  0.43720779  0.85263843    -0.23500
H936        H  0.72521661  0.39512889  0.83299457     0.15400
H937        H  0.73894349  0.40247007  0.94201669     0.15500
C938        C  0.65913042  0.36919774  0.92260176    -0.23500
H939        H  0.78624799  0.43313463  0.82846101     0.05700
H940        H  0.84028374  0.43419117  0.85472287     0.08900
H941        H  0.78427518  0.46114476  0.86059612     0.08900
H942        H  0.67468309  0.36038533  0.94325782     0.08900
H943        H  0.62999226  0.35348441  0.91193876     0.08900
H944        H  0.63614648  0.39061824  0.92999258     0.05700
C945        C  0.62826045  0.29510094  0.83466703    -0.20100
C946        C  0.65478893  0.31298459  0.85822926    -0.06700
C947        C  0.64779783  0.30171248  0.88692726     0.14200
C948        C  0.60381226  0.28244462  0.89180325    -0.20200
C949        C  0.56787918  0.27186544  0.86893318    -0.06700
C950        C  0.58644126  0.27486216  0.83933135     0.14200
C951        C  0.56641355  0.25545581  0.81206942    -0.23500
H952        H  0.63973566  0.29746412  0.81168341     0.15400
H953        H  0.60096412  0.27345964  0.91320755     0.15500
C954        C  0.68984112  0.30357421  0.91109122    -0.23500
H955        H  0.53114077  0.26673534  0.80249690     0.05700
H956        H  0.55625318  0.23215042  0.81748127     0.08900
H957        H  0.59815679  0.25226530  0.79433982     0.08900
H958        H  0.67094313  0.31053819  0.93325823     0.08900
H959        H  0.72304657  0.31896308  0.90666429     0.08900
H960        H  0.70733184  0.28040570  0.91286769     0.05700
C961        C  0.14720664  0.38492446  0.57058538    -0.20100
C962        C  0.19747081  0.37519603  0.55768837    -0.06700
C963        C  0.20998962  0.38655530  0.52940933     0.14200
C964        C  0.17385416  0.40719705  0.51697942    -0.20200
C965        C  0.12583893  0.41776925  0.53154738    -0.06700
C966        C  0.11271932  0.40619891  0.55897762     0.14200
C967        C  0.06409066  0.41742564  0.57784596    -0.23500
H968        H  0.13528707  0.37736904  0.59139628     0.15400
H969        H  0.18479043  0.41926789  0.99737091     0.15500
C970        C  0.26068027  0.37804122  0.51138925    -0.23500
H971        H  0.06414605  0.40868845  0.60022665     0.05700
H972        H  0.02633554  0.40943917  0.56681423     0.08900
H973        H  0.06405796  0.44277327  0.58170879     0.08900
H974        H  0.26378970  0.35295983  0.50576915     0.08900
H975        H  0.29666616  0.38689317  0.52346715     0.08900
H976        H  0.26282026  0.39275398  0.99118849     0.05700
C977        C  0.33214231  0.29520147  0.54672365    -0.20100
C978        C  0.38367860  0.30651042  0.55385838    -0.06700
C979        C  0.38768373  0.33844631  0.55343065     0.14200
C980        C  0.34355299  0.35673807  0.56434396    -0.20200
C981        C  0.29020578  0.34543145  0.56271405    -0.06700
C982        C  0.28618020  0.31465002  0.54858275     0.14200
C983        C  0.23485809  0.30108406  0.53591372    -0.23500
H984        H  0.32764384  0.27112401  0.53939261     0.15400
H985        H  0.35214820  0.38033556  0.57008030     0.15500
C986        C  0.41455116  0.35091693  0.52703169    -0.23500
H987        H  0.24224297  0.29146256  0.51235254     0.05700
H988        H  0.20190640  0.31820650  0.53533784     0.08900
H989        H  0.22185150  0.28231514  0.54896507     0.08900
H990        H  0.38178446  0.35705900  0.00979122     0.08900
H991        H  0.44347736  0.33450223  0.51496739     0.08900
H992        H  0.43445475  0.37279895  0.53436677     0.05700
C993        C  0.55791219  0.37278455  0.81200361    -0.20100
C994        C  0.57084241  0.37214094  0.78136159    -0.06700
C995        C  0.62602438  0.36630552  0.77368057     0.14200
C996        C  0.66089941  0.35440795  0.79424246    -0.20200
C997        C  0.64937850  0.35498407  0.82523960    -0.06700
C998        C  0.59627220  0.36657839  0.83386076     0.14200
C999        C  0.57713034  0.37190002  0.86577425    -0.23500
H1000       H  0.51747454  0.37889976  0.81959290     0.15400
H1001       H  0.69673324  0.34418661  0.78434892     0.15500
C1002       C  0.65232985  0.37530821  0.74570092    -0.23500
H1003       H  0.53603437  0.38243121  0.86791603     0.05700
H1004       H  0.60381875  0.38843109  0.87823523     0.08900
H1005       H  0.57416237  0.34989411  0.87547426     0.08900
H1006       H  0.63794164  0.39840206  0.74141750     0.08900
H1007       H  0.64586989  0.35763214  0.72671061     0.08900
H1008       H  0.69647839  0.37791660  0.74852135     0.05700
C1009       C  0.25556741  0.41873722  0.65191492    -0.20100
C1010       C  0.30453802  0.43091710  0.64401434    -0.06700
C1011       C  0.31363988  0.43331513  0.61335009     0.14200
C1012       C  0.28351028  0.41493077  0.59232324    -0.20200
C1013       C  0.25101045  0.39155106  0.60179851    -0.06700
C1014       C  0.22943617  0.39768619  0.63200254     0.14200
C1015       C  0.18193775  0.38337693  0.64664651    -0.23500
H1016       H  0.24223873  0.42130602  0.67508157     0.15400
H1017       H  0.29073237  0.41643435  0.56874771     0.15500
C1018       C  0.35435082  0.45476565  0.60268150    -0.23500
H1019       H  0.15802900  0.36686006  0.63306704     0.05700
H1020       H  0.19651824  0.37158758  0.66591613     0.08900
H1021       H  0.15299085  0.40179875  0.65539648     0.08900
H1022       H  0.38618036  0.44158322  0.58912132     0.08900
H1023       H  0.37331527  0.46862613  0.62173233     0.08900
H1024       H  0.33401507  0.47079436  0.58859133     0.05700
C1025       C  0.80098749  0.08315637  0.87559622    -0.20100
C1026       C  0.78188571  0.05788080  0.88901483    -0.06700
C1027       C  0.73275934  0.04535638  0.87825739     0.14200
C1028       C  0.70375573  0.05923763  0.85584602    -0.20200
C1029       C  0.71983628  0.08664735  0.84418564    -0.06700
C1030       C  0.77256842  0.09726715  0.85345378     0.14200
C1031       C  0.80232108  0.12305016  0.84070103    -0.23500
H1032       H  0.83947332  0.09244182  0.88281359     0.15400
H1033       H  0.66681475  0.04891241  0.84816112     0.15500
C1034       C  0.71005882  0.01753589  0.89042489    -0.23500
H1035       H  0.84147958  0.12786885  0.85190231     0.05700
H1036       H  0.77986937  0.14509348  0.84346775     0.08900
H1037       H  0.81298071  0.11641120  0.81691173     0.08900
H1038       H  0.70060608  0.02274968  0.91464619     0.08900
H1039       H  0.72890106  0.49885936  0.89177834     0.08900
H1040       H  0.66136344  0.51232615  0.88614963     0.05700
C1041       C  0.68029614  0.14168619  0.88549799    -0.20100
C1042       C  0.65031128  0.12093766  0.86612525    -0.06700
C1043       C  0.60235039  0.10982844  0.87965203     0.14200
C1044       C  0.57929932  0.12741032  0.90447470    -0.20200
C1045       C  0.59838716  0.15677455  0.91265141    -0.06700
C1046       C  0.65430954  0.15974548  0.90923603     0.14200
C1047       C  0.68547439  0.18124051  0.93060700    -0.23500
H1048       H  0.72166616  0.14635666  0.88065687     0.15400
H1049       H  0.54032140  0.12108445  0.91274168     0.15500
C1050       C  0.57172804  0.08114583  0.86957864    -0.23500
H1051       H  0.72902129  0.18078339  0.92452386     0.05700
H1052       H  0.68154010  0.17405358  0.95353700     0.08900
H1053       H  0.67022577  0.20508577  0.93112511     0.08900
H1054       H  0.58799057  0.06689076  0.85006336     0.08900
H1055       H  0.52966815  0.08749010  0.86405815     0.08900
H1056       H  0.57035594  0.06637223  0.88822630     0.05700
C1057       C  0.75393734  0.41433682  0.59426186    -0.20100
C1058       C  0.69967656  0.42432115  0.59773454    -0.06700
C1059       C  0.68571742  0.44985288  0.58143011     0.14200
C1060       C  0.72182949  0.45987760  0.55962643    -0.20200
C1061       C  0.77306347  0.44619000  0.55363131    -0.06700
C1062       C  0.78917304  0.42320548  0.57218225     0.14200
C1063       C  0.84272064  0.40603619  0.56859049    -0.23500
H1064       H  0.76975288  0.39806883  0.60806232     0.15400
H1065       H  0.70994356  0.47883244  0.54731250     0.15500
C1066       C  0.63495187  0.46869838  0.58820565    -0.23500
H1067       H  0.84581675  0.38706885  0.58311051     0.05700
H1068       H  0.87639909  0.42157581  0.57498202     0.08900
H1069       H  0.84761128  0.39549726  0.54515186     0.08900
H1070       H  0.63365472  0.47741387  0.61228737     0.08900
H1071       H  0.59884716  0.45535615  0.58242637     0.08900
H1072       H  0.63305177  0.48890584  0.57523004     0.05700
C1073       C  0.66037740  0.32778815  0.55005481    -0.20100
C1074       C  0.60980757  0.33340276  0.53846404    -0.06700
C1075       C  0.59766439  0.36402198  0.53430032     0.14200
C1076       C  0.62127854  0.38703204  0.55377100    -0.20200
C1077       C  0.65344093  0.37861539  0.57746188    -0.06700
C1078       C  0.68218867  0.34958532  0.57109274     0.14200
C1079       C  0.73248103  0.33816394  0.58574166    -0.23500
H1080       H  0.67705134  0.30471899  0.54795387     0.15400
H1081       H  0.60934287  0.41053700  0.55249341     0.15500
C1082       C  0.55825713  0.37215408  0.51103267    -0.23500
H1083       H  0.76460368  0.33326750  0.56842515     0.05700
H1084       H  0.72359541  0.31655876  0.59555554     0.08900
H1085       H  0.74973978  0.35316255  0.60374285     0.08900
H1086       H  0.52425787  0.38605756  0.52168276     0.08900
H1087       H  0.54210007  0.35130192  0.49835587     0.08900
H1088       H  0.57893060  0.38572820  0.49494364     0.05700
C1089       C  0.51747210  0.39992808  0.64253888    -0.20100
C1090       C  0.52697876  0.41361773  0.67150893    -0.06700
C1091       C  0.57602609  0.43017606  0.67559079     0.14200
C1092       C  0.61172873  0.43215449  0.65101863    -0.20200
C1093       C  0.60383647  0.41576589  0.62254320    -0.06700
C1094       C  0.55035696  0.40482701  0.61792824     0.14200
C1095       C  0.52089898  0.40474170  0.58883200    -0.23500
H1096       H  0.48176557  0.38647469  0.63821267     0.15400
H1097       H  0.65039752  0.44273732  0.65542077     0.15500
C1098       C  0.59543829  0.44418055  0.70558969    -0.23500
H1099       H  0.47647671  0.40673878  0.59235599     0.05700
H1100       H  0.52792188  0.38296486  0.57555881     0.08900
H1101       H  0.53148030  0.42433526  0.57655196     0.08900
H1102       H  0.57180222  0.43758316  0.72478786     0.08900
H1103       H  0.59492699  0.46948060  0.70606261     0.08900
H1104       H  0.63763947  0.43645405  0.70893801     0.05700
C1105       C  0.78943745  0.27787886  0.80472164    -0.20100
C1106       C  0.79863813  0.29224940  0.77892628    -0.06700
C1107       C  0.80264126  0.32435747  0.78454129     0.14200
C1108       C  0.77687279  0.33977655  0.81045135    -0.20200
C1109       C  0.74311271  0.32408611  0.82988297    -0.06700
C1110       C  0.76049667  0.29246858  0.82966032     0.14200
C1111       C  0.75816827  0.27443060  0.85631223    -0.23500
H1112       H  0.80631782  0.25514744  0.80552746     0.15400
H1113       H  0.77868105  0.36409807  0.81184441     0.15500
C1114       C  0.83543027  0.34284502  0.76480599    -0.23500
H1115       H  0.78455143  0.25361921  0.85339084     0.05700
H1116       H  0.71748656  0.26550830  0.85952801     0.08900
H1117       H  0.77445374  0.28827618  0.87601017     0.08900
H1118       H  0.81034813  0.36173564  0.75744208     0.08900
H1119       H  0.85237676  0.32884991  0.74487994     0.08900
H1120       H  0.86958299  0.35311466  0.77786874     0.05700
C1121       C  0.72581392  0.12283589  0.78835126    -0.20100
C1122       C  0.69556434  0.13395100  0.81446739    -0.06700
C1123       C  0.67518896  0.16487501  0.81486385     0.14200
C1124       C  0.68158130  0.18080951  0.78968592    -0.20200
C1125       C  0.71866677  0.17146682  0.76700140    -0.06700
C1126       C  0.74071775  0.14159018  0.76597092     0.14200
C1127       C  0.78013255  0.12934230  0.74183636    -0.23500
H1128       H  0.74030689  0.09940251  0.78608073     0.15400
H1129       H  0.66301686  0.20330434  0.78951982     0.15500
C1130       C  0.65241185  0.18420544  0.84166942    -0.23500
H1131       H  0.79510223  0.10601172  0.74533503     0.05700
H1132       H  0.81553461  0.14445246  0.74177483     0.08900
H1133       H  0.76018678  0.12786820  0.71971368     0.08900
H1134       H  0.68480891  0.18924408  0.85816829     0.08900
H1135       H  0.61781766  0.17363581  0.85132677     0.08900
H1136       H  0.63745430  0.20698216  0.83638473     0.05700
C1137       C  0.66175139  0.33315311  0.65865325    -0.20100
C1138       C  0.70819807  0.33927832  0.67492413    -0.06700
C1139       C  0.73456708  0.36714116  0.67261407     0.14200
C1140       C  0.71454008  0.38754351  0.65289017    -0.20200
C1141       C  0.67313750  0.37915599  0.63228557    -0.06700
C1142       C  0.64386080  0.35184794  0.63728472     0.14200
C1143       C  0.59552032  0.33905955  0.62020223    -0.23500
H1144       H  0.64125805  0.31194735  0.66125676     0.15400
H1145       H  0.73304537  0.40963140  0.65285574     0.15500
C1146       C  0.78545765  0.37468411  0.68952557    -0.23500
H1147       H  0.60529935  0.31546585  0.61005224     0.05700
H1148       H  0.58190715  0.35167250  0.60186479     0.08900
H1149       H  0.56091828  0.33788060  0.63589242     0.08900
H1150       H  0.81607679  0.35610124  0.68433244     0.08900
H1151       H  0.77650892  0.37749026  0.71383545     0.08900
H1152       H  0.80298103  0.39635409  0.68351319     0.05700
C1153       C  0.16382427  0.10307476  0.87562590    -0.20100
C1154       C  0.20800928  0.11565213  0.89232528    -0.06700
C1155       C  0.21611850  0.10530489  0.92123232     0.14200
C1156       C  0.18109307  0.08311818  0.93107017    -0.20200
C1157       C  0.13738968  0.07153236  0.91403984    -0.06700
C1158       C  0.13006236  0.08110612  0.88537513     0.14200
C1159       C  0.08865833  0.06711063  0.86378488    -0.23500
H1160       H  0.15575595  0.11007637  0.85377005     0.15400
H1161       H  0.18777587  0.07467092  0.95233741     0.15500
C1162       C  0.26034529  0.11644449  0.94241885    -0.23500
H1163       H  0.09446511  0.07396182  0.84083410     0.05700
H1164       H  0.04739186  0.07477468  0.87113142     0.08900
H1165       H  0.09219461  0.04176528  0.86216679     0.08900
H1166       H  0.25424370  0.14088430  0.95019231     0.08900
H1167       H  0.30085120  0.11261680  0.93224238     0.08900
H1168       H  0.26052790  0.10423759  0.96289747     0.05700
C1169       C  0.35171312  0.13917099  0.87906902    -0.20100
C1170       C  0.29991599  0.14861164  0.89033764    -0.06700
C1171       C  0.29790275  0.17887958  0.90592206     0.14200
C1172       C  0.34146637  0.19904410  0.90384574    -0.20200
C1173       C  0.38810884  0.19071590  0.88652049    -0.06700
C1174       C  0.39143588  0.16008811  0.87315209     0.14200
C1175       C  0.43257726  0.14877707  0.84952582    -0.23500
H1176       H  0.36025023  0.11630755  0.86984102     0.15400
H1177       H  0.33681041  0.22227378  0.91424044     0.15500
C1178       C  0.24854115  0.19214077  0.92247547    -0.23500
H1179       H  0.41163695  0.13646912  0.83027834     0.05700
H1180       H  0.46199069  0.13281200  0.85854840     0.08900
H1181       H  0.45349010  0.16762101  0.84019686     0.08900
H1182       H  0.25926662  0.20010473  0.94592385     0.08900
H1183       H  0.21650419  0.17527211  0.92328454     0.08900
H1184       H  0.23250195  0.21187828  0.91144636     0.05700
C1185       C  0.78652611  0.12200232  0.52880245    -0.20100
C1186       C  0.78069364  0.09128762  0.53418209    -0.06700
C1187       C  0.74921078  0.08503335  0.55891494     0.14200
C1188       C  0.72531001  0.10930981  0.57772717    -0.20200
C1189       C  0.72981270  0.14081279  0.57276402    -0.06700
C1190       C  0.76250905  0.14663787  0.54752294     0.14200
C1191       C  0.77671504  0.17849881  0.54081400    -0.23500
H1192       H  0.81296936  0.12684193  0.51057345     0.15400
H1193       H  0.70439528  0.10293833  0.59722505     0.15500
C1194       C  0.74318191  0.05260612  0.56655512    -0.23500
H1195       H  0.79860569  0.17828657  0.51908998     0.05700
H1196       H  0.80421138  0.18876566  0.55815329     0.08900
H1197       H  0.74057126  0.19328687  0.53930324     0.08900
H1198       H  0.78341451  0.04240161  0.57065184     0.08900
H1199       H  0.72373944  0.03875564  0.54768483     0.08900
H1200       H  0.71788694  0.05141183  0.58693829     0.05700
C1201       C  0.58479808  0.22643592  0.59259043    -0.20100
C1202       C  0.56135156  0.21858803  0.56461275    -0.06700
C1203       C  0.58860631  0.19532337  0.54552656     0.14200
C1204       C  0.63977367  0.18357028  0.55390683    -0.20200
C1205       C  0.66240788  0.19039797  0.58288989    -0.06700
C1206       C  0.63352912  0.21393883  0.60188798     0.14200
C1207       C  0.64868106  0.22745801  0.63301778    -0.23500
H1208       H  0.56440918  0.24376210  0.60788073     0.15400
H1209       H  0.65889633  0.16622295  0.53834574     0.15500
C1210       C  0.56284256  0.17902519  0.51834469    -0.23500
H1211       H  0.61626947  0.22296151  0.64916213     0.05700
H1212       H  0.65221826  0.25262815  0.63313136     0.08900
H1213       H  0.68628636  0.21945242  0.64199438     0.08900
H1214       H  0.58248256  0.18504529  0.99762022     0.08900
H1215       H  0.51955887  0.18494395  0.51668953     0.08900
H1216       H  0.56162469  0.15583843  0.02018308     0.05700
C1217       C  0.76644311  0.21432920  0.60975679    -0.20100
C1218       C  0.75394024  0.18342386  0.61268121    -0.06700
C1219       C  0.78733052  0.16915495  0.63357206     0.14200
C1220       C  0.81038643  0.18765230  0.65774228    -0.20200
C1221       C  0.80517457  0.21964976  0.65996519    -0.06700
C1222       C  0.79537181  0.23185573  0.63235472     0.14200
C1223       C  0.82217568  0.26054684  0.62459001    -0.23500
H1224       H  0.75144346  0.22540193  0.59092143     0.15400
H1225       H  0.82895760  0.17703745  0.67594075     0.15500
C1226       C  0.79445786  0.13501652  0.63307427    -0.23500
H1227       H  0.79269144  0.27660707  0.61583010     0.05700
H1228       H  0.85258384  0.25430276  0.60660511     0.08900
H1229       H  0.84359745  0.27217699  0.64404937     0.08900
H1230       H  0.81300435  0.12560866  0.61143094     0.08900
H1231       H  0.75560894  0.12399274  0.63680154     0.08900
H1232       H  0.82194800  0.12880993  0.65101496     0.05700
C1233       C  0.58304943  0.07269520  0.76760630    -0.20100
C1234       C  0.54073594  0.09490700  0.76841518    -0.06700
C1235       C  0.54406611  0.11996103  0.79037638     0.14200
C1236       C  0.58077332  0.11881367  0.81365416    -0.20200
C1237       C  0.62516638  0.09772698  0.81328458    -0.06700
C1238       C  0.62614259  0.07440084  0.78849860     0.14200
C1239       C  0.67114899  0.05118124  0.78176163    -0.23500
H1240       H  0.58529688  0.05494799  0.74905494     0.15400
H1241       H  0.57664112  0.13685650  0.83136721     0.15500
C1242       C  0.51365254  0.14981413  0.78810643    -0.23500
H1243       H  0.68766203  0.05330423  0.75898784     0.05700
H1244       H  0.65504828  0.02782519  0.78224724     0.08900
H1245       H  0.70517664  0.05347687  0.79718262     0.08900
H1246       H  0.46959373  0.14704398  0.78940522     0.08900
H1247       H  0.52414372  0.15903392  0.76675709     0.08900
H1248       H  0.52492307  0.16768857  0.80616628     0.05700
C1249       C  0.23940760  0.11262632  0.81841848    -0.20100
C1250       C  0.26296193  0.10977494  0.84657513    -0.06700
C1251       C  0.29554874  0.08279674  0.84719348     0.14200
C1252       C  0.32502893  0.07243485  0.82102604    -0.20200
C1253       C  0.31485792  0.08527597  0.79413937    -0.06700
C1254       C  0.26589889  0.10193852  0.79215230     0.14200
C1255       C  0.24244261  0.11114946  0.76361424    -0.23500
H1256       H  0.20316558  0.12622272  0.81644507     0.15400
H1257       H  0.35792450  0.05601839  0.82198815     0.15500
C1258       C  0.30156778  0.06581541  0.87449384    -0.23500
H1259       H  0.20261334  0.12301390  0.76707032     0.05700
H1260       H  0.23551747  0.09024287  0.74826914     0.08900
H1261       H  0.26935552  0.12751927  0.75391401     0.08900
H1262       H  0.32839721  0.04534341  0.86985298     0.08900
H1263       H  0.26158062  0.05768718  0.88118666     0.08900
H1264       H  0.31918276  0.08024415  0.89327172     0.05700
C1265       C  0.58062805  0.12896451  0.63118921    -0.20100
C1266       C  0.58419925  0.14071484  0.66107472    -0.06700
C1267       C  0.62791910  0.15875673  0.67043191     0.14200
C1268       C  0.66919503  0.16265983  0.65012474    -0.20200
C1269       C  0.66535706  0.15320287  0.61895257    -0.06700
C1270       C  0.61837900  0.13579853  0.60976584     0.14200
C1271       C  0.60382988  0.12338367  0.57820593    -0.23500
H1272       H  0.54707991  0.11453983  0.62421964     0.15400
H1273       H  0.70131303  0.17639861  0.65931207     0.15500
C1274       C  0.62939589  0.17667188  0.70095843    -0.23500
H1275       H  0.59858307  0.09825413  0.57728736     0.05700
H1276       H  0.63339302  0.12680916  0.56074707     0.08900
H1277       H  0.56500811  0.13396934  0.57202891     0.08900
H1278       H  0.65357783  0.16380726  0.71629435     0.08900
H1279       H  0.58831859  0.18141901  0.71049621     0.08900
H1280       H  0.64763560  0.19938475  0.69948100     0.05700
C1281       C  0.16703976  0.41456198  0.83577567    -0.20100
C1282       C  0.20701288  0.39434962  0.84520836    -0.06700
C1283       C  0.21791082  0.39821428  0.87687881     0.14200
C1284       C  0.18076214  0.41490326  0.89701325    -0.20200
C1285       C  0.13498106  0.42998613  0.88696535    -0.06700
C1286       C  0.13014680  0.43111618  0.85573202     0.14200
C1287       C  0.08645297  0.45022186  0.84312623    -0.23500
H1288       H  0.16254991  0.41637814  0.81215921     0.15400
H1289       H  0.18755561  0.41607675  0.92093964     0.15500
C1290       C  0.27030684  0.38842354  0.89030981    -0.23500
H1291       H  0.09047451  0.45020913  0.81845372     0.05700
H1292       H  0.09529014  0.97756158  0.85442413     0.08900
H1293       H  0.04632886  0.44096337  0.84779317     0.08900
H1294       H  0.30524930  0.39318022  0.87609638     0.08900
H1295       H  0.26987565  0.36410194  0.89438713     0.08900
H1296       H  0.27713223  0.40145150  0.91245954     0.05700
C1297       C  0.30653320  0.30006688  0.84970795    -0.20100
C1298       C  0.35721012  0.29876157  0.83531313    -0.06700
C1299       C  0.37085654  0.32319396  0.81894692     0.14200
C1300       C  0.33675953  0.34902773  0.81969013    -0.20200
C1301       C  0.28339991  0.35044071  0.83213218    -0.06700
C1302       C  0.26920682  0.32447521  0.84753735     0.14200
C1303       C  0.21447190  0.32039632  0.86120868    -0.23500
H1304       H  0.29510367  0.28156171  0.86249762     0.15400
H1305       H  0.35057924  0.36538423  0.80549639     0.15500
C1306       C  0.41845931  0.32155627  0.79751608    -0.23500
H1307       H  0.21888658  0.31629287  0.88509457     0.05700
H1308       H  0.19467499  0.30037299  0.84909755     0.08900
H1309       H  0.18782620  0.34043674  0.86070450     0.08900
H1310       H  0.43514813  0.29805416  0.79237750     0.08900
H1311       H  0.45047609  0.33690513  0.80688989     0.08900
H1312       H  0.40564561  0.32888846  0.77562648     0.05700
C1313       C  0.30908042  0.41522044  0.81130603    -0.20100
C1314       C  0.26693845  0.39610819  0.79975231    -0.06700
C1315       C  0.26026619  0.39500222  0.76834054     0.14200
C1316       C  0.30556388  0.39817257  0.75043801    -0.20200
C1317       C  0.35326748  0.41244793  0.76140356    -0.06700
C1318       C  0.35275747  0.42300375  0.79271619     0.14200
C1319       C  0.39816613  0.44029837  0.80828506    -0.23500
H1320       H  0.31239983  0.42025666  0.83529779     0.15400
H1321       H  0.30191110  0.38891665  0.72736620     0.15500
C1322       C  0.20697483  0.39126432  0.75233996    -0.23500
H1323       H  0.41345331  0.42751317  0.82669507     0.05700
H1324       H  0.38292361  0.46309655  0.81804539     0.08900
H1325       H  0.43288974  0.44367276  0.79360405     0.08900
H1326       H  0.17199817  0.39100511  0.76764499     0.08900
H1327       H  0.20761891  0.37007641  0.73658102     0.08900
H1328       H  0.20029340  0.41098801  0.73908609     0.05700
C1329       C  0.14797675  0.18718559  0.83508317    -0.20100
C1330       C  0.18370947  0.19523113  0.81300454    -0.06700
C1331       C  0.23926499  0.19136132  0.81662744     0.07200
C1332       C  0.25764202  0.17589477  0.84008307    -0.20200
C1333       C  0.22207063  0.16234213  0.85983134    -0.06700
C1334       C  0.16645575  0.17200861  0.85946528     0.14200
C1335       C  0.12516735  0.16846517  0.88370853    -0.23500
H1336       H  0.10548441  0.19286955  0.83326001     0.15400
H1337       H  0.30027174  0.17051941  0.83996343     0.15500
C1338       C  0.27933237  0.20171944  0.79439378    -0.23500
H1339       H  0.10798298  0.19134976  0.89182012     0.05700
H1340       H  0.14126038  0.15882069  0.90357302     0.08900
H1341       H  0.09180438  0.15395612  0.87446533     0.08900
H1342       H  0.27650836  0.22693483  0.79429422     0.08900
H1343       H  0.27102885  0.19057784  0.77160660     0.08900
H1344       H  0.32155596  0.19578019  0.79997346     0.05700
C1345       C  0.24105209  0.30503793  0.64001975    -0.20100
C1346       C  0.19036755  0.29240014  0.63734570    -0.06700
C1347       C  0.15608144  0.29979153  0.61432380     0.14200
C1348       C  0.17292721  0.32115759  0.59492888    -0.20200
C1349       C  0.22238832  0.33682015  0.59930351    -0.06700
C1350       C  0.25779218  0.32710738  0.62209644     0.14200
C1351       C  0.31291569  0.33966569  0.63031062    -0.23500
H1352       H  0.26685850  0.29867411  0.65790078     0.15400
H1353       H  0.14632133  0.32606740  0.57703502     0.15500
C1354       C  0.10122325  0.28589197  0.61111702    -0.23500
H1355       H  0.32537339  0.35947611  0.61921697     0.05700
H1356       H  0.31361593  0.34742170  0.65466880     0.08900
H1357       H  0.34402131  0.32127979  0.62544659     0.08900
H1358       H  0.07728435  0.29189093  0.63198631     0.08900
H1359       H  0.10553970  0.26063256  0.60701631     0.08900
H1360       H  0.07872701  0.29424249  0.59215722     0.05700
C1361       C  0.23649328  0.33080755  0.77749911    -0.20100
C1362       C  0.20445641  0.34896878  0.79897572    -0.06700
C1363       C  0.14792647  0.34129908  0.79931931     0.14200
C1364       C  0.12855635  0.31667606  0.77914684    -0.20200
C1365       C  0.16255354  0.29864576  0.75894454    -0.06700
C1366       C  0.21854637  0.30564974  0.75936746     0.14200
C1367       C  0.26240854  0.28671818  0.74166567    -0.23500
H1368       H  0.27833059  0.33631421  0.77482500     0.15400
H1369       H  0.08650636  0.31083404  0.77992869     0.15500
C1370       C  0.10532426  0.35843761  0.81885656    -0.23500
H1371       H  0.30364606  0.29401955  0.74833217     0.05700
H1372       H  0.26014447  0.28936265  0.71747008     0.08900
H1373       H  0.26092189  0.26230779  0.74558971     0.08900
H1374       H  0.09568919  0.38048667  0.81004868     0.08900
H1375       H  0.11682791  0.36157645  0.84265660     0.08900
H1376       H  0.06667142  0.34601225  0.81834434     0.05700
C1377       C  0.20198864  0.10341602  0.56474236    -0.20100
C1378       C  0.20394651  0.09832412  0.59567769    -0.06700
C1379       C  0.16921349  0.07442152  0.60395729     0.14200
C1380       C  0.13662039  0.05784311  0.58230395    -0.20200
C1381       C  0.13657135  0.06328234  0.55217411    -0.06700
C1382       C  0.17039951  0.08611509  0.54341221     0.14200
C1383       C  0.17291673  0.09240812  0.51121804    -0.23500
H1384       H  0.22470311  0.12142795  0.55631364     0.15400
H1385       H  0.10978055  0.04052258  0.58905858     0.15500
C1386       C  0.16416301  0.06541571  0.63525373    -0.23500
H1387       H  0.20053841  0.11131308  0.50752453     0.05700
H1388       H  0.13216798  0.09849766  0.50330236     0.08900
H1389       H  0.18259967  0.57196129  0.49896979     0.08900
H1390       H  0.14767480  0.08460118  0.65058017     0.08900
H1391       H  0.20326291  0.05661171  0.64250666     0.08900
H1392       H  0.13556626  0.04644861  0.63674366     0.05700
C1393       C  0.35289084  0.16336799  0.58199591    -0.20100
C1394       C  0.33995114  0.19439457  0.59010118    -0.06700
C1395       C  0.28452828  0.20117924  0.59738989     0.14200
C1396       C  0.25005877  0.17758137  0.60411800    -0.20200
C1397       C  0.26581379  0.14639347  0.60089726    -0.06700
C1398       C  0.31624072  0.13985259  0.58526823     0.14200
C1399       C  0.33486073  0.10839468  0.57242285    -0.23500
H1400       H  0.39180859  0.15688418  0.57212597     0.15400
H1401       H  0.21080526  0.18464061  0.61214481     0.15500
C1402       C  0.25874998  0.23233460  0.59712804    -0.23500
H1403       H  0.34525068  0.10882669  0.54834164     0.05700
H1404       H  0.30379281  0.09110577  0.57341425     0.08900
H1405       H  0.37133585  0.10127491  0.58434520     0.08900
H1406       H  0.26541701  0.24078321  0.57495308     0.08900
H1407       H  0.27408384  0.24782480  0.61604380     0.08900
H1408       H  0.21427232  0.23199517  0.59946405     0.05700
C1409       C  0.35959035  0.07799874  0.65525908    -0.20100
C1410       C  0.37606636  0.10138900  0.67707469    -0.06700
C1411       C  0.35079839  0.13053435  0.67663661     0.14200
C1412       C  0.31026576  0.13457947  0.65592971    -0.20200
C1413       C  0.28721825  0.11042881  0.63678950    -0.06700
C1414       C  0.31492000  0.08135231  0.63603386     0.14200
C1415       C  0.30199397  0.05301936  0.61571154    -0.23500
H1416       H  0.38188468  0.05661677  0.65264199     0.15400
H1417       H  0.29284139  0.15739034  0.65626500     0.15500
C1418       C  0.36418654  0.15813285  0.69829172    -0.23500
H1419       H  0.33808664  0.04562823  0.60181825     0.05700
H1420       H  0.26882617  0.05570554  0.60023281     0.08900
H1421       H  0.29171812  0.03426278  0.62946286     0.08900
H1422       H  0.40633264  0.16515477  0.69532050     0.08900
H1423       H  0.35678350  0.15350328  0.72175262     0.08900
H1424       H  0.33862589  0.17845156  0.69477654     0.05700
C1425       C  0.17672419  0.15962786  0.69404523    -0.20100
C1426       C  0.14170221  0.18244041  0.68504273    -0.06700
C1427       C  0.12312999  0.17708368  0.65475206     0.14200
C1428       C  0.14814873  0.15368025  0.63450178    -0.20200
C1429       C  0.19318322  0.13629988  0.64291068    -0.06700
C1430       C  0.19698105  0.13521528  0.67460992     0.14200
C1431       C  0.22039284  0.10924075  0.69029656    -0.23500
H1432       H  0.19249927  0.16074899  0.71622315     0.15400
H1433       H  0.13706170  0.15193082  0.61107494     0.15500
C1434       C  0.08027212  0.19645565  0.64185003    -0.23500
H1435       H  0.18886744  0.10116198  0.70517428     0.05700
H1436       H  0.25510185  0.11748666  0.70390810     0.08900
H1437       H  0.23404119  0.08909372  0.67581078     0.08900
H1438       H  0.06798445  0.21668635  0.65703315     0.08900
H1439       H  0.04429094  0.18238625  0.63632380     0.08900
H1440       H  0.09543475  0.20491237  0.62089936     0.05700
C1441       C  0.23554503  0.62217921  0.11852698    -0.02300
C1442       C  0.13737313  0.71455334  0.20551444     0.30200
C1443       C  0.14476069  0.77059024  0.23925675     0.30200
C1444       C  0.16787013  0.73984853  0.19122135    -0.06000
C1445       C  0.08307837  0.73103234  0.21439994    -0.06800
C1446       C  0.16218545  0.71460259  0.23747682    -0.06700
C1447       C  0.16910018  0.76803020  0.20822490    -0.06000
C1448       C  0.08647443  0.75987050  0.23178901    -0.06800
C1449       C  0.16705403  0.74340102  0.25344929    -0.06700
C1450       C  0.17428363  0.79020957  0.18923748    -0.32100
N1451       N  0.17979277  0.77676716  0.16113871     0.14400
C1452       C  0.17544655  0.74616766  0.16177631    -0.32100
H1453       H  0.17620717  0.72983409  0.14228470     0.16400
C1454       C  0.03430360  0.77075973  0.23629541    -0.31000
N1455       N  0.00060259  0.74970240  0.22269248     0.13200
C1456       C  0.02953938  0.72537632  0.20966459    -0.31000
C1457       C  0.16865077  0.74014210  0.28348462    -0.31300
N1458       N  0.16412431  0.71052104  0.28728672     0.13700
H1459       H  0.17208282  0.75829551  0.30155452     0.16300
C1460       C  0.15689429  0.69495413  0.26000105    -0.31300
H1461       H  0.14623022  0.67110988  0.25711006     0.16300
H1462       H  0.01280193  0.70531138  0.19740905     0.16300
H1463       H  0.17386057  0.81468583  0.19546216     0.16400
H1464       H  0.02142830  0.79261300  0.24753765     0.16300
C1465       C  0.23916339  0.87433570  0.31868092    -0.02300
C1466       C  0.41753733  0.59578005  0.20082308     0.30200
C1467       C  0.49244092  0.59357952  0.24507234     0.30200
C1468       C  0.39600411  0.60186586  0.23278429    -0.06000
C1469       C  0.44499234  0.56410901  0.20236967    -0.06800
C1470       C  0.46504859  0.61726294  0.19999408    -0.06700
C1471       C  0.43401647  0.60110112  0.25574595    -0.06000
C1472       C  0.48459955  0.56355795  0.22549983    -0.06800
C1473       C  0.50307300  0.61600375  0.22245448    -0.06700
C1474       C  0.40645983  0.59195656  0.28004570    -0.32100
N1475       N  0.35385563  0.58787740  0.27297015     0.14400
C1476       C  0.34864380  0.59174950  0.24370262    -0.32100
H1477       H  0.31443998  0.58487642  0.23010007     0.16400
C1478       C  0.47930042  0.53653636  0.23755313    -0.31000
N1479       N  0.44204233  0.02044173  0.22294884     0.13200
C1480       C  0.41880886  0.53652544  0.20242841    -0.31000
C1481       C  0.55116991  0.62453001  0.21105806    -0.31300
N1482       N  0.54306324  0.63275387  0.18324238     0.13700
H1483       H  0.59025316  0.62107817  0.22084371     0.16300
C1484       C  0.49089169  0.62767229  0.17604378    -0.31300
H1485       H  0.47384795  0.62871738  0.15403138     0.16300
H1486       H  0.38592921  0.02840087  0.18881500     0.16300
H1487       H  0.42418772  0.58779659  0.30125181     0.16400
H1488       H  0.50129378  0.02943599  0.25641900     0.16300
C1489       C  0.70331910  0.66685151  0.09751768    -0.02300
C1490       C  0.24556544  0.63720641  0.37504816    -0.02300
C1491       C  0.80554857  0.73798862  0.19205026     0.30200
C1492       C  0.80396921  0.77229482  0.24800717     0.30200
C1493       C  0.78065234  0.72231121  0.21820966    -0.06000
C1494       C  0.86042775  0.74763001  0.20533260    -0.06800
C1495       C  0.77353462  0.76875717  0.19480332    -0.06700
C1496       C  0.77913402  0.73988534  0.24607423    -0.06000
C1497       C  0.85964400  0.76497883  0.23353374    -0.06800
C1498       C  0.77392689  0.78614867  0.22271251    -0.06700
C1499       C  0.75470213  0.72222665  0.26561778    -0.32100
N1500       N  0.74462691  0.69414689  0.25182808     0.14400
C1501       C  0.75929843  0.69395767  0.22257924    -0.32100
H1502       H  0.75339630  0.67501726  0.20579044     0.16400
C1503       C  0.91222048  0.76817258  0.24255789    -0.31000
N1504       N  0.94428476  0.75318359  0.22099029     0.13200
C1505       C  0.91340823  0.74044310  0.19833083    -0.31000
C1506       C  0.74906425  0.81378727  0.21927909    -0.31300
N1507       N  0.73317382  0.81371597  0.19053109     0.13700
H1508       H  0.74388969  0.83254523  0.23620458     0.16300
C1509       C  0.74501158  0.78585625  0.17604444    -0.31300
H1510       H  0.73336170  0.77904816  0.15334609     0.16300
H1511       H  0.92828095  0.72631918  0.17872165     0.16300
H1512       H  0.74308231  0.72894853  0.28851972     0.16400
H1513       H  0.92596790  0.77913588  0.26375523     0.16300
C1514       C  0.65979851  0.89816121  0.10722508    -0.02300
C1515       C  0.66913952  0.60792734  0.33421848    -0.02300
C1516       C  0.40376832  0.91423801  0.23827884     0.30200
C1517       C  0.48280801  0.91341926  0.19505453     0.30200
C1518       C  0.38490167  0.91195328  0.20550325    -0.06000
C1519       C  0.43601048  0.94364521  0.23885502    -0.06800
C1520       C  0.44829322  0.88931864  0.23914532    -0.06700
C1521       C  0.42473736  0.91056597  0.18309912    -0.06000
C1522       C  0.47698116  0.94284238  0.21626965    -0.06800
C1523       C  0.48747188  0.88832904  0.21631911    -0.06700
C1524       C  0.40149064  0.92380433  0.15923510    -0.32100
N1525       N  0.35021579  0.93310178  0.16612273     0.14400
C1526       C  0.34230047  0.92827063  0.19495016    -0.32100
H1527       H  0.30805046  0.93744011  0.20824739     0.16400
C1528       C  0.47574798  0.47204857  0.20751237    -0.31000
N1529       N  0.43886635  0.48946741  0.22324026     0.13200
C1530       C  0.41353569  0.47339759  0.24289933    -0.31000
C1531       C  0.53464184  0.87819842  0.22795326    -0.31300
N1532       N  0.52934574  0.87547042  0.25774521     0.13700
H1533       H  0.57068462  0.87674654  0.21474488     0.16300
C1534       C  0.47607447  0.88171206  0.26415914    -0.31300
H1535       H  0.45832126  0.88416784  0.28624316     0.16300
H1536       H  0.37949829  0.48179036  0.25680922     0.16300
H1537       H  0.42133885  0.92728548  0.13842353     0.16400
H1538       H  0.49865878  0.47932916  0.18894527     0.16300
C1539       C  0.24432214  0.86493366  0.08081162    -0.02300
C1540       C  0.69065887  0.84091425  0.34701668    -0.02300
C1541       C  0.51161504  0.74014085  0.05982966     0.30200
C1542       C  0.43334990  0.78499788  0.05794696     0.30200
C1543       C  0.53044945  0.77306319  0.06454991    -0.06000
C1544       C  0.48358555  0.74105142  0.02928791    -0.06800
C1545       C  0.46331635  0.73867653  0.08164721    -0.06700
C1546       C  0.49126154  0.79652529  0.06451598    -0.06000
C1547       C  0.44151877  0.76362653  0.02945548    -0.06800
C1548       C  0.42400843  0.76207198  0.08129070    -0.06700
C1549       C  0.51841111  0.82016804  0.05314022    -0.32100
N1550       N  0.56959504  0.81182081  0.04501793     0.14400
C1551       C  0.57671539  0.78296529  0.05183310    -0.32100
H1552       H  0.61201359  0.76877116  0.04579162     0.16400
C1553       C  0.43789895  0.77279597  0.50021375    -0.31000
N1554       N  0.47761491  0.75933995  0.48348738     0.13200
C1555       C  0.50661110  0.74064298  0.49948064    -0.31000
C1556       C  0.37549257  0.74904961  0.08756361    -0.31300
N1557       N  0.38120773  0.71853821  0.08967371     0.13700
H1558       H  0.33862405  0.76163222  0.08704343     0.16300
C1559       C  0.43534124  0.71259053  0.08672839    -0.31300
H1560       H  0.45406868  0.69010139  0.08485904     0.16300
H1561       H  0.54341025  0.72918142  0.49128379     0.16300
H1562       H  0.50254226  0.84252180  0.05200823     0.16400
H1563       H  0.40959690  0.78936732  0.49271027     0.16300
C1564       C  0.51712598  0.75423215  0.37600638     0.30200
C1565       C  0.43423868  0.71528340  0.38386821     0.30200
C1566       C  0.53352013  0.72103866  0.37839087    -0.06000
C1567       C  0.48355238  0.76208852  0.40511349    -0.06800
C1568       C  0.47162898  0.75352986  0.35282196    -0.06700
C1569       C  0.49150462  0.70128020  0.38297250    -0.06000
C1570       C  0.44070636  0.74121772  0.40887130    -0.06800
C1571       C  0.42939125  0.73300329  0.35623855    -0.06700
C1572       C  0.51215876  0.67991959  0.40055123    -0.32100
N1573       N  0.56541654  0.68455833  0.40553451     0.14400
C1574       C  0.57731108  0.71068424  0.39349039    -0.32100
H1575       H  0.61573533  0.72175740  0.39501487     0.16400
C1576       C  0.43712225  0.73798737  0.43856906    -0.31000
N1577       N  0.47354653  0.75593253  0.45273007     0.13200
C1578       C  0.50106746  0.77138044  0.43360963    -0.31000
C1579       C  0.38266738  0.74770836  0.34781849    -0.31300
N1580       N  0.39425962  0.77582816  0.33995881     0.13700
H1581       H  0.34220045  0.74006942  0.35170383     0.16300
C1582       C  0.44790511  0.77945547  0.34346061    -0.31300
H1583       H  0.46744274  0.80136121  0.34425804     0.16300
H1584       H  0.53239609  0.78722988  0.44041177     0.16300
H1585       H  0.48883307  0.66245201  0.40971042     0.16400
H1586       H  0.41411158  0.72122967  0.44907806     0.16300
O1587       O  0.04311469  0.55853943  0.03657144    -0.75100
O1588       O  0.10771026  0.52909824  0.51034627    -0.54000
C1589       C  0.09276422  0.55027356  0.03124119     0.78600
O1590       O  0.86187593  0.94936130  0.03318607    -0.59700
O1591       O  0.79551766  0.97488574  0.51051572    -0.52800
C1592       C  0.81203079  0.95623111  0.02981545     0.70600
O1593       O  0.03861846  0.93691232  0.02535282    -0.74300
O1594       O  0.10730175  0.95801203  0.49965618    -0.54800
C1595       C  0.08886941  0.93968856  0.01936130     0.76600
O1596       O  0.86643772  0.57349869  0.02403501    -0.59400
O1597       O  0.79838773  0.54451654  0.50137698    -0.52500
C1598       C  0.81643444  0.56872385  0.01830943     0.73200
Zr1599     Zr  0.95383691  0.54847091  0.01479981     2.54700
O1600       O  0.93766359  0.55159277  0.06863726    -0.80000
O1601       O  0.96849024  0.60313111  0.01380616    -0.93400
Zr1602     Zr  0.95123272  0.95747774  0.51265452     2.64700
O1603       O  0.95890435  0.96574849  0.06840912    -0.98400
O1604       O  0.94141801  0.90233830  0.51097499    -0.80400
O1605       O  0.00655713  0.00120470  0.01643200    -0.83800
O1606       O  0.89811618  0.50537203  0.01462789    -2.18500
O1607       O  0.86539009  0.54948818  0.40768536    -0.67200
O1608       O  0.79678137  0.52759726  0.43151744    -0.51700
C1609       C  0.81498992  0.54376592  0.41102874     0.71600
O1610       O  0.04365036  0.93907966  0.40213605    -0.60100
O1611       O  0.10979722  0.96287062  0.43049816    -0.52100
C1612       C  0.09360625  0.94527437  0.40749800     0.73400
O1613       O  0.86401633  0.93265585  0.41021910    -0.71500
O1614       O  0.79819951  0.95920194  0.43872226    -0.50200
C1615       C  0.81432628  0.93805865  0.41798440     0.74800
O1616       O  0.04379399  0.55771095  0.41870656    -0.66800
O1617       O  0.10970004  0.53323292  0.44293199    -0.54000
C1618       C  0.09343160  0.55336269  0.42565653     0.73200
Zr1619     Zr  0.95405582  0.53868030  0.42770229     2.77500
O1620       O  0.96782554  0.52942736  0.37371987    -0.97600
O1621       O  0.94325743  0.59386522  0.42797412    -0.78400
Zr1622     Zr  0.95402086  0.94972831  0.42530308     2.70100
O1623       O  0.94685737  0.93997847  0.37114656    -0.79600
O1624       O  0.96436505  0.89584802  0.43292357    -0.98700
Zr1625     Zr  0.06226028  0.99577816  0.47071372     2.21500
Zr1626     Zr  0.84265000  0.50017290  0.47060485     2.11100
O1627       O  0.89952906  0.49479371  0.42643085    -2.47400
O1628       O  0.00745611  0.49337889  0.42604907    -0.79400
O1629       O  0.89960386  0.54393833  0.47159690    -0.71600
O1630       O  0.00651425  0.95165226  0.46893493    -2.32600
O1631       O  0.00708867  0.54213806  0.47180696    -2.28800
O1632       O  0.89787990  0.95418323  0.46897592    -0.73400
H1633       H  0.87555419  0.00625834  0.03328746     0.78600
H1634       H  0.02808435  0.93305892  0.46775551     0.79700
H1635       H  0.87803100  0.49286649  0.40854243     0.81900
H1636       H  0.02924479  0.56009702  0.47333817     0.79500
H1637       H  0.91718759  0.89701933  0.49387650     0.42600
H1638       H  0.92771079  0.88745800  0.43036149     0.41600
H1639       H  0.94258307  0.96050670  0.36412867     0.41200
H1640       H  0.93835562  0.51566195  0.36672346     0.39200
H1641       H  0.94875656  0.59775460  0.40681766     0.42300
H1642       H  0.95254880  0.61055673  0.53350965     0.37100
H1643       H  0.92720790  0.57324806  0.07445143     0.43200
H1644       H  0.98805724  0.98075601  0.07198011     0.39600
H1645       H  0.95821550  0.54914266  0.36607076     0.44500
H1646       H  0.00233570  0.60479854  0.00227941     0.43300
H1647       H  0.92571764  0.97726694  0.07540451     0.43400
H1648       H  0.98484644  0.88667586  0.41510015     0.43700
C1649       C  0.73504721  0.89359727  0.35539030    -0.20100
C1650       C  0.71063163  0.86971438  0.36957361    -0.06700
C1651       C  0.70599107  0.87724865  0.40184096     0.14200
C1652       C  0.74100183  0.89893571  0.41692443    -0.20200
C1653       C  0.77399992  0.91759833  0.40151155    -0.06700
C1654       C  0.76841064  0.91591629  0.37020519     0.14200
C1655       C  0.79678464  0.93807148  0.35217641    -0.23500
H1656       H  0.72709460  0.89555329  0.33206804     0.15400
H1657       H  0.74032147  0.90251886  0.44121622     0.15500
C1658       C  0.65878106  0.87081405  0.42145772    -0.23500
H1659       H  0.78623957  0.93456378  0.32807367     0.05700
H1660       H  0.84108213  0.93496418  0.35383485     0.08900
H1661       H  0.78530735  0.96189315  0.36069718     0.08900
H1662       H  0.67314531  0.86237303  0.44253512     0.08900
H1663       H  0.62943275  0.85518294  0.41091232     0.08900
H1664       H  0.63639787  0.89260701  0.42814594     0.05700
C1665       C  0.62612396  0.79710473  0.33426293    -0.20100
C1666       C  0.65381988  0.81455756  0.35766799    -0.06700
C1667       C  0.64717533  0.80337725  0.38639030     0.14200
C1668       C  0.60293274  0.78447611  0.39152604    -0.20200
C1669       C  0.56664252  0.77388807  0.36883836    -0.06700
C1670       C  0.58456930  0.77688434  0.33911821     0.14200
C1671       C  0.56465388  0.75782767  0.31159637    -0.23500
H1672       H  0.63735789  0.79918705  0.31118700     0.15400
H1673       H  0.60049287  0.77555834  0.41294409     0.15500
C1674       C  0.68955609  0.80506433  0.41037947    -0.23500
H1675       H  0.53733084  0.77186244  0.29878901     0.05700
H1676       H  0.54464324  0.73669644  0.31672355     0.08900
H1677       H  0.59942149  0.74980491  0.29689748     0.08900
H1678       H  0.67125765  0.81267278  0.43254465     0.08900
H1679       H  0.72356085  0.81973778  0.40546756     0.08900
H1680       H  0.70583114  0.78170398  0.41256003     0.05700
C1681       C  0.15015432  0.88548349  0.07180162    -0.20100
C1682       C  0.20133340  0.87741806  0.05917025    -0.06700
C1683       C  0.21357556  0.88971217  0.03134869     0.14200
C1684       C  0.17626993  0.90981504  0.01919921    -0.20200
C1685       C  0.12686050  0.91844361  0.03330264    -0.06700
C1686       C  0.11359618  0.90546367  0.05997735     0.14200
C1687       C  0.06221001  0.91348017  0.07772076    -0.23500
H1688       H  0.13855551  0.87728568  0.09236489     0.15400
H1689       H  0.18433514  0.91679837  0.49568609     0.15500
C1690       C  0.26482991  0.88245967  0.01336031    -0.23500
H1691       H  0.06148225  0.90342023  0.09945352     0.05700
H1692       H  0.02680467  0.90436435  0.06509430     0.08900
H1693       H  0.05829060  0.93865414  0.08288189     0.08900
H1694       H  0.26861581  0.85758216  0.00664013     0.08900
H1695       H  0.30063914  0.89085354  0.02587023     0.08900
H1696       H  0.26325649  0.89096308  0.48982308     0.05700
C1697       C  0.33479894  0.79811438  0.04637591    -0.20100
C1698       C  0.38631820  0.80856698  0.05459130    -0.06700
C1699       C  0.39177451  0.84054992  0.05518749     0.14200
C1700       C  0.34808478  0.85895532  0.06660298    -0.20200
C1701       C  0.29438144  0.84833377  0.06375064    -0.06700
C1702       C  0.28964834  0.81811186  0.04835599     0.14200
C1703       C  0.23841541  0.80545475  0.03466760    -0.23500
H1704       H  0.32962932  0.77427142  0.03828984     0.15400
H1705       H  0.35734740  0.88220325  0.07392311     0.15500
C1706       C  0.41695679  0.85317969  0.02835451    -0.23500
H1707       H  0.24634589  0.79702697  0.01082905     0.05700
H1708       H  0.20554912  0.82265093  0.03467485     0.08900
H1709       H  0.22484832  0.78595158  0.04654596     0.08900
H1710       H  0.38471224  0.85602232  0.51012040     0.08900
H1711       H  0.44521495  0.83678317  0.01570051     0.08900
H1712       H  0.43735773  0.87499134  0.03539944     0.05700
C1713       C  0.55961126  0.87368598  0.31045064    -0.20100
C1714       C  0.57205749  0.87107947  0.27966082    -0.06700
C1715       C  0.62712721  0.86484040  0.27204890     0.14200
C1716       C  0.66239924  0.85426946  0.29315467    -0.20200
C1717       C  0.65079102  0.85593569  0.32417851    -0.06700
C1718       C  0.59797808  0.86821785  0.33251156     0.14200
C1719       C  0.57886348  0.87465198  0.36433981    -0.23500
H1720       H  0.51948662  0.88064032  0.31796353     0.15400
H1721       H  0.69844320  0.84386076  0.28369940     0.15500
C1722       C  0.65273702  0.87187376  0.24326785    -0.23500
H1723       H  0.53827874  0.88585061  0.36619523     0.05700
H1724       H  0.60626261  0.89099090  0.37650426     0.08900
H1725       H  0.57458437  0.85296103  0.37447151     0.08900
H1726       H  0.63969012  0.89492589  0.23829671     0.08900
H1727       H  0.64421258  0.85357345  0.22517119     0.08900
H1728       H  0.69693285  0.87411610  0.24540081     0.05700
C1729       C  0.25770735  0.92199460  0.15288674    -0.20100
C1730       C  0.30660567  0.93441597  0.14512928    -0.06700
C1731       C  0.31599366  0.93670224  0.11452666     0.14200
C1732       C  0.28712241  0.91768592  0.09348042    -0.20200
C1733       C  0.25475799  0.89422904  0.10297285    -0.06700
C1734       C  0.23256474  0.90042167  0.13302495     0.14200
C1735       C  0.18545797  0.88563478  0.14754013    -0.23500
H1736       H  0.24404379  0.92466607  0.17600095     0.15400
H1737       H  0.29541572  0.91883839  0.07000079     0.15500
C1738       C  0.35636765  0.95843326  0.10401090    -0.23500
H1739       H  0.16308834  0.86822861  0.13414866     0.05700
H1740       H  0.20006270  0.87465826  0.16730227     0.08900
H1741       H  0.15526124  0.90368587  0.15552041     0.08900
H1742       H  0.38871732  0.94546032  0.09067232     0.08900
H1743       H  0.37471751  0.97248847  0.12314940     0.08900
H1744       H  0.33590173  0.97425620  0.08976366     0.05700
C1745       C  0.79689721  0.58229642  0.37495310    -0.20100
C1746       C  0.77783613  0.55730417  0.38885448    -0.06700
C1747       C  0.72849485  0.54473698  0.37843733     0.14200
C1748       C  0.69937315  0.55830006  0.35586507    -0.20200
C1749       C  0.71550347  0.58543524  0.34370278    -0.06700
C1750       C  0.76865603  0.59578220  0.35234362     0.14200
C1751       C  0.80017727  0.61943889  0.33733712    -0.23500
H1752       H  0.83568308  0.59148519  0.38172618     0.15400
H1753       H  0.66256429  0.54776311  0.34816610     0.15500
C1754       C  0.70565985  0.51722891  0.39112235    -0.23500
H1755       H  0.83939899  0.62454483  0.34836196     0.05700
H1756       H  0.77922873  0.64180307  0.33769219     0.08900
H1757       H  0.81087377  0.61028936  0.31409892     0.08900
H1758       H  0.69653310  0.52284786  0.41533355     0.08900
H1759       H  0.73302327  0.99950336  0.39120512     0.08900
H1760       H  0.66611800  0.01324576  0.38445805     0.05700
C1761       C  0.68179870  0.64523262  0.38152106    -0.20100
C1762       C  0.65067263  0.62185642  0.36621881    -0.06700
C1763       C  0.60589579  0.61167927  0.38317788     0.14200
C1764       C  0.58620346  0.63100253  0.40782169    -0.20200
C1765       C  0.60409073  0.66106087  0.41208551    -0.06700
C1766       C  0.65888068  0.66472350  0.40509465     0.14200
C1767       C  0.69108164  0.69055072  0.41991512    -0.23500
H1768       H  0.72059464  0.65102898  0.37317251     0.15400
H1769       H  0.54914911  0.62517909  0.41869235     0.15500
C1770       C  0.57438782  0.58269632  0.37638916    -0.23500
H1771       H  0.70524698  0.70544635  0.40298134     0.05700
H1772       H  0.72680185  0.68108266  0.43082673     0.08900
H1773       H  0.66674007  0.70450589  0.43736280     0.08900
H1774       H  0.58642216  0.56812798  0.35616417     0.08900
H1775       H  0.53111347  0.58869579  0.37360063     0.08900
H1776       H  0.57790997  0.56864441  0.39552513     0.05700
C1777       C  0.75555080  0.91017120  0.09137038    -0.20100
C1778       C  0.70259217  0.92166317  0.09700132    -0.06700
C1779       C  0.68878691  0.94807502  0.08187255     0.14200
C1780       C  0.72401343  0.95830808  0.05979069    -0.20200
C1781       C  0.77383455  0.94373941  0.05209145    -0.06700
C1782       C  0.78923315  0.91896473  0.06856641     0.14200
C1783       C  0.83986711  0.89969092  0.06158322    -0.23500
H1784       H  0.77064685  0.89239019  0.10364133     0.15400
H1785       H  0.71269125  0.97818724  0.04866113     0.15500
C1786       C  0.63907628  0.96744500  0.08988793    -0.23500
H1787       H  0.84110450  0.87896245  0.07384319     0.05700
H1788       H  0.87626385  0.91287561  0.06836679     0.08900
H1789       H  0.84147998  0.89158309  0.03732884     0.08900
H1790       H  0.63911801  0.97548127  0.11412553     0.08900
H1791       H  0.60226933  0.95471507  0.08409901     0.08900
H1792       H  0.63740847  0.98813425  0.07759071     0.05700
C1793       C  0.66256693  0.82551505  0.04966096    -0.20100
C1794       C  0.61250693  0.83165972  0.03779313    -0.06700
C1795       C  0.60174393  0.86245728  0.03372178     0.14200
C1796       C  0.62559587  0.88502378  0.05358740    -0.20200
C1797       C  0.65558880  0.87598160  0.07785694    -0.06700
C1798       C  0.68324602  0.84648511  0.07186112     0.14200
C1799       C  0.73132512  0.83363831  0.08756319    -0.23500
H1800       H  0.67875623  0.80233100  0.04715304     0.15400
H1801       H  0.61487007  0.90874250  0.05233007     0.15500
C1802       C  0.56307137  0.87127098  0.01038138    -0.23500
H1803       H  0.76417529  0.82772331  0.07088120     0.05700
H1804       H  0.71945328  0.81232650  0.09708415     0.08900
H1805       H  0.74928877  0.84794180  0.10591322     0.08900
H1806       H  0.52935818  0.88544461  0.02101703     0.08900
H1807       H  0.54633620  0.85071024  0.99748777     0.08900
H1808       H  0.58452589  0.88477687  0.99452469     0.05700
C1809       C  0.51842861  0.90113571  0.14178297    -0.20100
C1810       C  0.52888474  0.91365610  0.17105813    -0.06700
C1811       C  0.57915609  0.92892582  0.17556025     0.14200
C1812       C  0.61542260  0.93033883  0.15118575    -0.20200
C1813       C  0.60705761  0.91422537  0.12262733    -0.06700
C1814       C  0.55264192  0.90508472  0.11745555     0.14200
C1815       C  0.52504978  0.90396142  0.08776045    -0.23500
H1816       H  0.48176076  0.88865009  0.13715142     0.15400
H1817       H  0.65475412  0.94001661  0.15582335     0.15500
C1818       C  0.59918148  0.94218282  0.20570564    -0.23500
H1819       H  0.48039328  0.90544674  0.09033331     0.05700
H1820       H  0.53350147  0.88199801  0.07521915     0.08900
H1821       H  0.53588835  0.92334088  0.07521757     0.08900
H1822       H  0.57554101  0.93542645  0.22482914     0.08900
H1823       H  0.59946687  0.96750452  0.20662251     0.08900
H1824       H  0.64124784  0.93407886  0.20877163     0.05700
C1825       C  0.79027969  0.77746508  0.30513103    -0.20100
C1826       C  0.80091810  0.79159815  0.27944159    -0.06700
C1827       C  0.80490831  0.82370148  0.28491198     0.14200
C1828       C  0.77816701  0.83931977  0.31042104    -0.20200
C1829       C  0.74323553  0.82391587  0.32952152    -0.06700
C1830       C  0.75941067  0.79199402  0.32933895     0.14200
C1831       C  0.75274931  0.77289985  0.35504995    -0.23500
H1832       H  0.80738816  0.75485449  0.30632063     0.15400
H1833       H  0.78024592  0.86362500  0.31173383     0.15500
C1834       C  0.83856719  0.84197644  0.26538646    -0.23500
H1835       H  0.77618746  0.75101417  0.35171651     0.05700
H1836       H  0.71087281  0.76545203  0.35738998     0.08900
H1837       H  0.76987428  0.78516446  0.37537113     0.08900
H1838       H  0.81398785  0.86085768  0.25761281     0.08900
H1839       H  0.85595350  0.82782467  0.24568376     0.08900
H1840       H  0.87238696  0.85224068  0.27873788     0.05700
C1841       C  0.72151566  0.62133674  0.28791673    -0.20100
C1842       C  0.68886775  0.63234464  0.31311542    -0.06700
C1843       C  0.66721655  0.66304429  0.31242064     0.14200
C1844       C  0.68162991  0.68032394  0.28926702    -0.20200
C1845       C  0.72033496  0.67069263  0.26768127    -0.06700
C1846       C  0.74011167  0.64036136  0.26653836     0.14200
C1847       C  0.78183341  0.62811061  0.24369284    -0.23500
H1848       H  0.73547992  0.59782213  0.28579521     0.15400
H1849       H  0.66429554  0.70314378  0.28892822     0.15500
C1850       C  0.62968359  0.68104619  0.33436463    -0.23500
H1851       H  0.79538405  0.60455461  0.24730546     0.05700
H1852       H  0.81774666  0.64290812  0.24520027     0.08900
H1853       H  0.76462349  0.62721583  0.22089780     0.08900
H1854       H  0.65192035  0.70058729  0.34573204     0.08900
H1855       H  0.61129300  0.66884733  0.35134135     0.08900
H1856       H  0.59550816  0.69055635  0.32229574     0.05700
C1857       C  0.66281673  0.83264298  0.16023053    -0.20100
C1858       C  0.70983893  0.83844642  0.17605709    -0.06700
C1859       C  0.73721299  0.86589259  0.17312548     0.14200
C1860       C  0.71869972  0.88568273  0.15238673    -0.20200
C1861       C  0.67591170  0.87759054  0.13259536    -0.06700
C1862       C  0.64524292  0.85110529  0.13862767     0.14200
C1863       C  0.59577890  0.83888691  0.12222779    -0.23500
H1864       H  0.64149749  0.81183659  0.16341449     0.15400
H1865       H  0.73906652  0.90706343  0.15105815     0.15500
C1866       C  0.78711903  0.87377175  0.19083345    -0.23500
H1867       H  0.60378480  0.81487640  0.11271483     0.05700
H1868       H  0.58288864  0.85109101  0.10346227     0.08900
H1869       H  0.56133430  0.83902644  0.13822888     0.08900
H1870       H  0.81761091  0.85493986  0.18696945     0.08900
H1871       H  0.77656011  0.87756511  0.21493751     0.08900
H1872       H  0.80553559  0.89504549  0.18442475     0.05700
C1873       C  0.16083720  0.60641276  0.37559673    -0.20100
C1874       C  0.20487376  0.61865263  0.39269346    -0.06700
C1875       C  0.21193892  0.60797868  0.42153262     0.14200
C1876       C  0.17649633  0.58565803  0.43082434    -0.20200
C1877       C  0.13319233  0.57418973  0.41335651    -0.06700
C1878       C  0.12616638  0.58459050  0.38496556     0.14200
C1879       C  0.08384517  0.57183423  0.36330577    -0.23500
H1880       H  0.15359485  0.61362286  0.35371993     0.15400
H1881       H  0.18261415  0.57694407  0.45201290     0.15500
C1882       C  0.25581889  0.61873882  0.44308517    -0.23500
H1883       H  0.08933276  0.57947507  0.34064031     0.05700
H1884       H  0.04308341  0.57982221  0.37127723     0.08900
H1885       H  0.08631808  0.54644297  0.36081946     0.08900
H1886       H  0.24993338  0.64316136  0.45099703     0.08900
H1887       H  0.29647575  0.61478444  0.43312731     0.08900
H1888       H  0.25534572  0.60633318  0.46342754     0.05700
C1889       C  0.34964232  0.64110659  0.38032910    -0.20100
C1890       C  0.29802969  0.65109355  0.39149155    -0.06700
C1891       C  0.29711474  0.68135406  0.40711562     0.14200
C1892       C  0.34138315  0.70108682  0.40494281    -0.20200
C1893       C  0.38794356  0.69226062  0.38765242    -0.06700
C1894       C  0.39025868  0.66156473  0.37450293     0.14200
C1895       C  0.43047953  0.65002621  0.35059974    -0.23500
H1896       H  0.35734942  0.61817024  0.37103041     0.15400
H1897       H  0.33743980  0.72437267  0.41529755     0.15500
C1898       C  0.24823880  0.69503242  0.42384966    -0.23500
H1899       H  0.40906985  0.63730741  0.33174574     0.05700
H1900       H  0.46069487  0.63443349  0.35949252     0.08900
H1901       H  0.45000736  0.66901367  0.34081558     0.08900
H1902       H  0.25922185  0.70243480  0.44738782     0.08900
H1903       H  0.21535987  0.67860678  0.42430650     0.08900
H1904       H  0.23313296  0.71520851  0.41317360     0.05700
C1905       C  0.78485192  0.62304762  0.02930037    -0.20100
C1906       C  0.77859012  0.59215407  0.03391569    -0.06700
C1907       C  0.74740767  0.58540273  0.05857443     0.14200
C1908       C  0.72463150  0.60935856  0.07821661    -0.20200
C1909       C  0.72896307  0.64099463  0.07381648    -0.06700
C1910       C  0.76132152  0.64734289  0.04863046     0.14200
C1911       C  0.77582064  0.67937186  0.04266138    -0.23500
H1912       H  0.81125646  0.62826044  0.01119013     0.15400
H1913       H  0.70445710  0.60260370  0.09778192     0.15500
C1914       C  0.74041245  0.55272084  0.06519100    -0.23500
H1915       H  0.79682883  0.67966870  0.02073529     0.05700
H1916       H  0.80429363  0.68892095  0.05984940     0.08900
H1917       H  0.73977407  0.69442902  0.04204907     0.08900
H1918       H  0.78034083  0.54190731  0.06879707     0.08900
H1919       H  0.72032612  0.53970231  0.04602136     0.08900
H1920       H  0.71519965  0.55111671  0.08553068     0.05700
C1921       C  0.58406588  0.72652304  0.09469503    -0.20100
C1922       C  0.56021716  0.71869148  0.06681735    -0.06700
C1923       C  0.58678426  0.69510920  0.04779417     0.14200
C1924       C  0.63808411  0.68335126  0.05587773    -0.20200
C1925       C  0.66120988  0.69018593  0.08470991    -0.06700
C1926       C  0.63276110  0.71380056  0.10383725     0.14200
C1927       C  0.64874482  0.72745156  0.13477934    -0.23500
H1928       H  0.56416652  0.74406650  0.10995636     0.15400
H1929       H  0.65703545  0.66606691  0.04018322     0.15500
C1930       C  0.56014371  0.67845335  0.02108326    -0.23500
H1931       H  0.61636096  0.72355853  0.15115546     0.05700
H1932       H  0.65323444  0.75252919  0.13454313     0.08900
H1933       H  0.68608678  0.71904254  0.14372799     0.08900
H1934       H  0.58475676  0.68375616  0.49868732     0.08900
H1935       H  0.51701241  0.68477103  0.01947640     0.08900
H1936       H  0.56355092  0.65423990  0.52078575     0.05700
C1937       C  0.76563206  0.71412110  0.11099848    -0.20100
C1938       C  0.75327868  0.68319046  0.11390209    -0.06700
C1939       C  0.78744231  0.66872701  0.13428067     0.14200
C1940       C  0.81143428  0.68702537  0.15823212    -0.20200
C1941       C  0.80639818  0.71901040  0.16061139    -0.06700
C1942       C  0.79563570  0.73141175  0.13322935     0.14200
C1943       C  0.82242553  0.76004421  0.12527188    -0.23500
H1944       H  0.74989636  0.72536460  0.09244606     0.15400
H1945       H  0.83066397  0.67628112  0.17615459     0.15500
C1946       C  0.79498586  0.63458504  0.13330603    -0.23500
H1947       H  0.79284573  0.77619413  0.11673796     0.05700
H1948       H  0.85237435  0.75373226  0.10706245     0.08900
H1949       H  0.84433246  0.77161561  0.14458152     0.08900
H1950       H  0.81291618  0.62550053  0.11139779     0.08900
H1951       H  0.75637627  0.62341394  0.13728845     0.08900
H1952       H  0.82321331  0.62822850  0.15084691     0.05700
C1953       C  0.57845967  0.57176308  0.26835572    -0.20100
C1954       C  0.53610043  0.59387123  0.26957907    -0.06700
C1955       C  0.53819218  0.61789642  0.29257161     0.14200
C1956       C  0.57311164  0.61543214  0.31653861    -0.20200
C1957       C  0.61922767  0.59549684  0.31502196    -0.06700
C1958       C  0.62111962  0.57307341  0.28940445     0.14200
C1959       C  0.66640853  0.55013401  0.28202067    -0.23500
H1960       H  0.58125987  0.55459281  0.24930425     0.15400
H1961       H  0.56650263  0.63194756  0.33540069     0.15500
C1962       C  0.50924993  0.64814677  0.29034525    -0.23500
H1963       H  0.68294789  0.55303676  0.25941886     0.05700
H1964       H  0.65045816  0.52665619  0.28170677     0.08900
H1965       H  0.70040530  0.55183552  0.29745573     0.08900
H1966       H  0.46502724  0.64599012  0.29038947     0.08900
H1967       H  0.52209763  0.65781712  0.26959664     0.08900
H1968       H  0.51961771  0.66529104  0.30907963     0.05700
C1969       C  0.23800021  0.61691857  0.31889101    -0.20100
C1970       C  0.26059296  0.61326249  0.34714743    -0.06700
C1971       C  0.29152953  0.58561687  0.34771245     0.14200
C1972       C  0.32005498  0.57441554  0.32147597    -0.20200
C1973       C  0.31073233  0.58721075  0.29450086    -0.06700
C1974       C  0.26352709  0.60532492  0.29260675     0.14200
C1975       C  0.24086619  0.61472899  0.26397174    -0.23500
H1976       H  0.20259918  0.63113477  0.31683336     0.15400
H1977       H  0.35165919  0.55720065  0.32238742     0.15500
C1978       C  0.29658297  0.56849861  0.37500191    -0.23500
H1979       H  0.20212119  0.62769433  0.26741253     0.05700
H1980       H  0.23209023  0.59382174  0.24902471     0.08900
H1981       H  0.26919126  0.63006097  0.25382048     0.08900
H1982       H  0.32242937  0.54762503  0.37035862     0.08900
H1983       H  0.25620012  0.56091682  0.38163660     0.08900
H1984       H  0.31477732  0.58257413  0.39384061     0.05700
C1985       C  0.58141179  0.62751299  0.13292943    -0.20100
C1986       C  0.58470887  0.63936241  0.16279133    -0.06700
C1987       C  0.62832922  0.65760033  0.17213543     0.14200
C1988       C  0.66911227  0.66208137  0.15162450    -0.20200
C1989       C  0.66514290  0.65263885  0.12045931    -0.06700
C1990       C  0.61858654  0.63480030  0.11140850     0.14200
C1991       C  0.60378930  0.62232954  0.07989752    -0.23500
H1992       H  0.54816203  0.61284562  0.12599267     0.15400
H1993       H  0.70133032  0.67586356  0.16066925     0.15500
C1994       C  0.62988684  0.67514791  0.20284156    -0.23500
H1995       H  0.60001624  0.59708781  0.07885789     0.05700
H1996       H  0.63242439  0.62646158  0.06221845     0.08900
H1997       H  0.56418967  0.63225546  0.07409876     0.08900
H1998       H  0.64924950  0.66087258  0.21886133     0.08900
H1999       H  0.58870104  0.68241007  0.21084259     0.08900
H2000       H  0.65303926  0.69649524  0.20238918     0.05700
C2001       C  0.16723834  0.91585329  0.33422578    -0.20100
C2002       C  0.20736293  0.89579581  0.34371653    -0.06700
C2003       C  0.21793316  0.89939750  0.37539084     0.14200
C2004       C  0.18017456  0.91536447  0.39547995    -0.20200
C2005       C  0.13484938  0.93072801  0.38539726    -0.06700
C2006       C  0.13018241  0.93221668  0.35418648     0.14200
C2007       C  0.08648077  0.95134571  0.34160700    -0.23500
H2008       H  0.16278027  0.91766363  0.31060255     0.15400
H2009       H  0.18673160  0.91619841  0.41941545     0.15500
C2010       C  0.27050935  0.89051281  0.38920085    -0.23500
H2011       H  0.09063467  0.95146465  0.31694898     0.05700
H2012       H  0.09101476  0.47430273  0.35246380     0.08900
H2013       H  0.04636125  0.94200900  0.34613686     0.08900
H2014       H  0.30504725  0.89036955  0.37349964     0.08900
H2015       H  0.26708694  0.86830134  0.39862687     0.08900
H2016       H  0.28095045  0.90781634  0.40797187     0.05700
C2017       C  0.30690247  0.80308174  0.35154489    -0.20100
C2018       C  0.35639976  0.80055325  0.33602629    -0.06700
C2019       C  0.36939292  0.82344130  0.31772226     0.14200
C2020       C  0.33594587  0.84935140  0.31769098    -0.20200
C2021       C  0.28324001  0.85179896  0.33103440    -0.06700
C2022       C  0.26936588  0.82703468  0.34814742     0.14200
C2023       C  0.21468449  0.82327350  0.36195324    -0.23500
H2024       H  0.29627088  0.78557517  0.36575793     0.15400
H2025       H  0.34891915  0.86444883  0.30197151     0.15500
C2026       C  0.41524408  0.81969580  0.29511786    -0.23500
H2027       H  0.21883921  0.82105316  0.38626488     0.05700
H2028       H  0.19601094  0.80222166  0.35113460     0.08900
H2029       H  0.18704058  0.84250537  0.35970589     0.08900
H2030       H  0.43042629  0.79576306  0.29100984     0.08900
H2031       H  0.44878062  0.83476610  0.30286607     0.08900
H2032       H  0.40114479  0.82591807  0.27303746     0.05700
C2033       C  0.31070816  0.91545924  0.31051003    -0.20100
C2034       C  0.26763227  0.89728293  0.29867542    -0.06700
C2035       C  0.26157472  0.89611112  0.26722458     0.14200
C2036       C  0.30745199  0.89852638  0.24959413    -0.20200
C2037       C  0.35567304  0.91195740  0.26087509    -0.06700
C2038       C  0.35549467  0.92209999  0.29224989     0.14200
C2039       C  0.40262187  0.93717458  0.30832702    -0.23500
H2040       H  0.31390629  0.92019678  0.33454420     0.15400
H2041       H  0.30393328  0.88943646  0.22644504     0.15500
C2042       C  0.20856050  0.89252561  0.25090438    -0.23500
H2043       H  0.41580559  0.92329459  0.32640456     0.05700
H2044       H  0.39005990  0.96028481  0.31859171     0.08900
H2045       H  0.43812968  0.93951655  0.29389115     0.08900
H2046       H  0.17326945  0.89253790  0.26602811     0.08900
H2047       H  0.20914304  0.87121781  0.23530445     0.08900
H2048       H  0.20254579  0.91213938  0.23743009     0.05700
C2049       C  0.14631133  0.68944545  0.33515500    -0.20100
C2050       C  0.18264016  0.69775643  0.31347956    -0.06700
C2051       C  0.23816721  0.69515461  0.31823319     0.07200
C2052       C  0.25614863  0.68003987  0.34204351    -0.20200
C2053       C  0.22024391  0.66593258  0.36118545    -0.06700
C2054       C  0.16446311  0.67502151  0.36007900     0.14200
C2055       C  0.12291161  0.67171733  0.38422612    -0.23500
H2056       H  0.10370864  0.69444808  0.33267552     0.15400
H2057       H  0.29894708  0.67531275  0.34258041     0.15500
C2058       C  0.27879514  0.70636719  0.29679254    -0.23500
H2059       H  0.10510022  0.69459559  0.39177115     0.05700
H2060       H  0.13921574  0.66268308  0.40438384     0.08900
H2061       H  0.08998919  0.65677740  0.37514973     0.08900
H2062       H  0.27480221  0.73156083  0.29685070     0.08900
H2063       H  0.27219820  0.69524960  0.27380270     0.08900
H2064       H  0.32094816  0.70109940  0.30305724     0.05700
C2065       C  0.24774391  0.80647797  0.14023052    -0.20100
C2066       C  0.19763460  0.79312151  0.13711762    -0.06700
C2067       C  0.16299986  0.80076272  0.11437586     0.14200
C2068       C  0.17928799  0.82252987  0.09535109    -0.20200
C2069       C  0.22774632  0.83903277  0.10032322    -0.06700
C2070       C  0.26325144  0.82955149  0.12316520     0.14200
C2071       C  0.31704857  0.84331387  0.13237900    -0.23500
H2072       H  0.27367733  0.80011664  0.15805879     0.15400
H2073       H  0.15278348  0.82710671  0.07732191     0.15500
C2074       C  0.10804514  0.78695744  0.11127882    -0.23500
H2075       H  0.32891937  0.86340128  0.12155679     0.05700
H2076       H  0.31597762  0.85096116  0.15677370     0.08900
H2077       H  0.34953684  0.82565020  0.12800185     0.08900
H2078       H  0.08457891  0.79262528  0.13237126     0.08900
H2079       H  0.11217984  0.76173401  0.10670666     0.08900
H2080       H  0.08510082  0.79573865  0.09268992     0.05700
C2081       C  0.23714358  0.83211482  0.27640947    -0.20100
C2082       C  0.20483709  0.85033929  0.29768594    -0.06700
C2083       C  0.14830199  0.84273050  0.29780934     0.14200
C2084       C  0.12923998  0.81824221  0.27743169    -0.20200
C2085       C  0.16383663  0.79983851  0.25791270    -0.06700
C2086       C  0.21990214  0.80642831  0.25902386     0.14200
C2087       C  0.26456216  0.78652939  0.24303894    -0.23500
H2088       H  0.27872087  0.83779376  0.27337525     0.15400
H2089       H  0.08707094  0.81264499  0.27773536     0.15500
C2090       C  0.10541705  0.85974410  0.31725230    -0.23500
H2091       H  0.30542858  0.79384599  0.25042960     0.05700
H2092       H  0.26440875  0.78800141  0.21860127     0.08900
H2093       H  0.26220996  0.76246039  0.24801584     0.08900
H2094       H  0.09560187  0.88176178  0.30842993     0.08900
H2095       H  0.11668665  0.86297255  0.34107411     0.08900
H2096       H  0.06693300  0.84714378  0.31668683     0.05700
C2097       C  0.20069668  0.60469529  0.06466133    -0.20100
C2098       C  0.20243754  0.59946074  0.09553570    -0.06700
C2099       C  0.16686213  0.57592522  0.10378954     0.14200
C2100       C  0.13366938  0.55980755  0.08213615    -0.20200
C2101       C  0.13376859  0.56540038  0.05205826    -0.06700
C2102       C  0.16820863  0.58798629  0.04338600     0.14200
C2103       C  0.17071990  0.59451068  0.01130765    -0.23500
H2104       H  0.22429251  0.62236153  0.05623724     0.15400
H2105       H  0.10633873  0.54269911  0.08883760     0.15500
C2106       C  0.16156397  0.56681766  0.13504075    -0.23500
H2107       H  0.19847271  0.61338776  0.00775241     0.05700
H2108       H  0.13002336  0.60078486  0.00344693     0.08900
H2109       H  0.18534973  0.07193238  0.99954524     0.08900
H2110       H  0.14549708  0.58604317  0.15046466     0.08900
H2111       H  0.20044873  0.55769206  0.14223969     0.08900
H2112       H  0.13252706  0.54805170  0.13645857     0.05700
C2113       C  0.35259308  0.66435085  0.08271903    -0.20100
C2114       C  0.33891503  0.69540815  0.09015267    -0.06700
C2115       C  0.28314911  0.70195667  0.09655181     0.14200
C2116       C  0.24875740  0.67832023  0.10334439    -0.20200
C2117       C  0.26506778  0.64721405  0.10082890    -0.06700
C2118       C  0.31601386  0.64074241  0.08577043     0.14200
C2119       C  0.33505724  0.60923568  0.07334032    -0.23500
H2120       H  0.39196005  0.65791277  0.07343238     0.15400
H2121       H  0.20892317  0.68522078  0.11044756     0.15500
C2122       C  0.25710754  0.73286455  0.09513850    -0.23500
H2123       H  0.34699134  0.60956519  0.04946407     0.05700
H2124       H  0.30353143  0.59208447  0.07374517     0.08900
H2125       H  0.37065870  0.60207927  0.08597359     0.08900
H2126       H  0.26450856  0.74071722  0.07275690     0.08900
H2127       H  0.27188647  0.74885719  0.11378527     0.08900
H2128       H  0.21255782  0.73242092  0.09711679     0.05700
C2129       C  0.35738200  0.57796892  0.15522234    -0.20100
C2130       C  0.37427318  0.60133236  0.17699614    -0.06700
C2131       C  0.34957296  0.63060528  0.17648361     0.14200
C2132       C  0.30935640  0.63487863  0.15570115    -0.20200
C2133       C  0.28585649  0.61086372  0.13662597    -0.06700
C2134       C  0.31283506  0.58158799  0.13594972     0.14200
C2135       C  0.29922595  0.55337140  0.11561622    -0.23500
H2136       H  0.37916706  0.55642393  0.15270039     0.15400
H2137       H  0.29242818  0.65780092  0.15596204     0.15500
C2138       C  0.36304362  0.65811212  0.19823488    -0.23500
H2139       H  0.33525720  0.54558379  0.10184586     0.05700
H2140       H  0.26641141  0.55643103  0.09998933     0.08900
H2141       H  0.28809650  0.53474986  0.12934994     0.08900
H2142       H  0.40534575  0.66494578  0.19548025     0.08900
H2143       H  0.35510088  0.65350555  0.22164933     0.08900
H2144       H  0.33790017  0.67856219  0.19462598     0.05700
C2145       C  0.17667540  0.66059617  0.19391101    -0.20100
C2146       C  0.14258264  0.68368186  0.18473292    -0.06700
C2147       C  0.12375095  0.67850589  0.15450709     0.14200
C2148       C  0.14770260  0.65469826  0.13440537    -0.20200
C2149       C  0.19247382  0.63717652  0.14280777    -0.06700
C2150       C  0.19632465  0.63604151  0.17450518     0.14200
C2151       C  0.21913483  0.60990803  0.19017741    -0.23500
H2152       H  0.19214649  0.66164882  0.21616822     0.15400
H2153       H  0.13633031  0.65284097  0.11101836     0.15500
C2154       C  0.08208580  0.69854415  0.14144195    -0.23500
H2155       H  0.18739751  0.60206198  0.20506098     0.05700
H2156       H  0.25402391  0.61789769  0.20377345     0.08900
H2157       H  0.23230683  0.58966860  0.17567349     0.08900
H2158       H  0.07155280  0.71939359  0.15619015     0.08900
H2159       H  0.04497947  0.68527865  0.13647908     0.08900
H2160       H  0.09759518  0.70614720  0.12017458     0.05700
C2161       C  0.23242189  0.62295201  0.61877015    -0.02300
C2162       C  0.13446632  0.71577179  0.70562687     0.30200
C2163       C  0.14197412  0.77183551  0.73936295     0.30200
C2164       C  0.16510550  0.74095719  0.69138272    -0.06000
C2165       C  0.08026165  0.73234349  0.71442575    -0.06800
C2166       C  0.15914347  0.71581131  0.73756004    -0.06700
C2167       C  0.16616981  0.76923559  0.70824134    -0.06000
C2168       C  0.08363882  0.76118578  0.73184446    -0.06800
C2169       C  0.16417152  0.74455407  0.75357694    -0.06700
C2170       C  0.17037883  0.79127793  0.68897116    -0.32100
N2171       N  0.17559491  0.77760937  0.66091840     0.14400
C2172       C  0.17208870  0.74705715  0.66189741    -0.32100
H2173       H  0.17304077  0.73053753  0.64259129     0.16400
C2174       C  0.03144194  0.77214010  0.73613546    -0.31000
N2175       N  0.99784974  0.75110573  0.72233508     0.13200
C2176       C  0.02683434  0.72675966  0.70944778    -0.31000
C2177       C  0.16637689  0.74109809  0.78360152    -0.31300
N2178       N  0.16182975  0.71140632  0.78723398     0.13700
H2179       H  0.17024725  0.75913045  0.80174314     0.16300
C2180       C  0.15408673  0.69603377  0.75993355    -0.31300
H2181       H  0.14366551  0.67214715  0.75694195     0.16300
H2182       H  0.01016848  0.70665995  0.69721808     0.16300
H2183       H  0.16966412  0.81578743  0.69498827     0.16400
H2184       H  0.01855348  0.79394877  0.74749188     0.16300
C2185       C  0.23910350  0.87406849  0.81948499    -0.02300
C2186       C  0.41438179  0.59660054  0.70063862     0.30200
C2187       C  0.48973737  0.59349129  0.74448892     0.30200
C2188       C  0.39317261  0.60226704  0.73266765    -0.06000
C2189       C  0.44182432  0.56484231  0.70152896    -0.06800
C2190       C  0.46190755  0.61802000  0.69985092    -0.06700
C2191       C  0.43133982  0.60086203  0.75537414    -0.06000
C2192       C  0.48178604  0.56376295  0.72442491    -0.06800
C2193       C  0.50034040  0.61627300  0.72209990    -0.06700
C2194       C  0.40379386  0.59167604  0.77967445    -0.32100
N2195       N  0.35090324  0.58824773  0.77284461     0.14400
C2196       C  0.34551876  0.59259351  0.74367366    -0.32100
H2197       H  0.31107678  0.58618967  0.73009685     0.16400
C2198       C  0.47706647  0.53621258  0.73555429    -0.31000
N2199       N  0.44367462  0.02069622  0.72299702     0.13200
C2200       C  0.41589678  0.53712256  0.70078074    -0.31000
C2201       C  0.54854547  0.62398623  0.71012925    -0.31300
N2202       N  0.54015598  0.63232827  0.68236494     0.13700
H2203       H  0.58776333  0.62006420  0.71958067     0.16300
C2204       C  0.48766910  0.62798817  0.67562231    -0.31300
H2205       H  0.47024114  0.62919737  0.65372498     0.16300
H2206       H  0.38571386  0.02950777  0.69017866     0.16300
H2207       H  0.42178019  0.58685711  0.80061311     0.16400
H2208       H  0.50564493  0.02892851  0.75521859     0.16300
C2209       C  0.70162641  0.66655869  0.59710318    -0.02300
C2210       C  0.24445184  0.63742302  0.87468535    -0.02300
C2211       C  0.80215830  0.73771239  0.69303252     0.30200
C2212       C  0.80136222  0.77194025  0.74907470     0.30200
C2213       C  0.77689294  0.72216568  0.71922987    -0.06000
C2214       C  0.85727424  0.74708971  0.70628056    -0.06800
C2215       C  0.77085884  0.76874590  0.69588121    -0.06700
C2216       C  0.77586971  0.73966283  0.74713067    -0.06000
C2217       C  0.85681000  0.76436253  0.73451307    -0.06800
C2218       C  0.77168249  0.78611047  0.72383099    -0.06700
C2219       C  0.75096850  0.72212050  0.76667197    -0.32100
N2220       N  0.73979157  0.69417146  0.75283990     0.14400
C2221       C  0.75451430  0.69402904  0.72355559    -0.32100
H2222       H  0.74798808  0.67532698  0.70661577     0.16400
C2223       C  0.90949424  0.76849018  0.74293818    -0.31000
N2224       N  0.94143443  0.75415255  0.72096863     0.13200
C2225       C  0.91033696  0.74097845  0.69859446    -0.31000
C2226       C  0.74862744  0.81423677  0.72029337    -0.31300
N2227       N  0.73330317  0.81443167  0.69147260     0.13700
H2228       H  0.74422312  0.83315259  0.73717226     0.16300
C2229       C  0.74368406  0.78635556  0.67703537    -0.31300
H2230       H  0.73191232  0.77970813  0.65431711     0.16300
H2231       H  0.92520049  0.72742420  0.67863555     0.16300
H2232       H  0.73985513  0.72890375  0.78962891     0.16400
H2233       H  0.92351343  0.77982503  0.76391353     0.16300
C2234       C  0.66190792  0.90023657  0.60868734    -0.02300
C2235       C  0.66295708  0.60742958  0.83515261    -0.02300
C2236       C  0.40321883  0.91352932  0.73760494     0.30200
C2237       C  0.48290680  0.91290916  0.69454028     0.30200
C2238       C  0.38488403  0.90977721  0.70458994    -0.06000
C2239       C  0.43403522  0.94341336  0.73735619    -0.06800
C2240       C  0.44926191  0.88944428  0.73926548    -0.06700
C2241       C  0.42519890  0.90845392  0.68227863    -0.06000
C2242       C  0.47491251  0.94265598  0.71490690    -0.06800
C2243       C  0.48886070  0.88876092  0.71669145    -0.06700
C2244       C  0.40163088  0.92054400  0.65778733    -0.32100
N2245       N  0.35004340  0.92944485  0.66428116     0.14400
C2246       C  0.34178525  0.92509439  0.69322042    -0.32100
H2247       H  0.30737436  0.93452082  0.70619851     0.16400
C2248       C  0.47295876  0.47165761  0.70532510    -0.31000
N2249       N  0.43574318  0.48939025  0.72054766     0.13200
C2250       C  0.41074969  0.47385076  0.74074856    -0.31000
C2251       C  0.53639591  0.87958446  0.72871647    -0.31300
N2252       N  0.53062541  0.87656697  0.75842761     0.13700
H2253       H  0.57282192  0.87899522  0.71588702     0.16300
C2254       C  0.47698562  0.88219380  0.76448579    -0.31300
H2255       H  0.45870860  0.88412550  0.78642654     0.16300
H2256       H  0.37684529  0.48254919  0.75461447     0.16300
H2257       H  0.42155271  0.92388508  0.63697207     0.16400
H2258       H  0.49628749  0.47848203  0.68670085     0.16300
C2259       C  0.24204226  0.86366236  0.57894311    -0.02300
C2260       C  0.69084917  0.84119794  0.84826343    -0.02300
C2261       C  0.51080809  0.73986896  0.55859942     0.30200
C2262       C  0.43196171  0.78440824  0.55659580     0.30200
C2263       C  0.52885268  0.77293765  0.56421259    -0.06000
C2264       C  0.48393922  0.74123818  0.52784663    -0.06800
C2265       C  0.46164184  0.73772731  0.57976036    -0.06700
C2266       C  0.48933450  0.79619762  0.56410421    -0.06000
C2267       C  0.44146094  0.76349183  0.52791792    -0.06800
C2268       C  0.42243480  0.76116191  0.57953577    -0.06700
C2269       C  0.51660125  0.82055254  0.55415996    -0.32100
N2270       N  0.56838254  0.81276019  0.54684790     0.14400
C2271       C  0.57560875  0.78360712  0.55277500    -0.32100
H2272       H  0.61145429  0.76979731  0.54700805     0.16400
C2273       C  0.43776170  0.77281273  0.00172392    -0.31000
N2274       N  0.47691036  0.75900064  0.98485847     0.13200
C2275       C  0.50555966  0.73999683  0.00070069    -0.31000
C2276       C  0.37389367  0.74840840  0.58588242    -0.31300
N2277       N  0.37916639  0.71785388  0.58764693     0.13700
H2278       H  0.33730286  0.76126962  0.58572911     0.16300
C2279       C  0.43320965  0.71158803  0.58432138    -0.31300
H2280       H  0.45144941  0.68896123  0.58209319     0.16300
H2281       H  0.54185512  0.72809775  0.99230828     0.16300
H2282       H  0.50035164  0.84295361  0.55345021     0.16400
H2283       H  0.40994580  0.78968822  0.99432595     0.16300
C2284       C  0.51708331  0.75464496  0.87771103     0.30200
C2285       C  0.43421116  0.71571755  0.88541372     0.30200
C2286       C  0.53358069  0.72145084  0.88056925    -0.06000
C2287       C  0.48280904  0.76279284  0.90657351    -0.06800
C2288       C  0.47199547  0.75354761  0.85419851    -0.06700
C2289       C  0.49138472  0.70187694  0.88528311    -0.06000
C2290       C  0.43972019  0.74195555  0.91017348    -0.06800
C2291       C  0.43009057  0.73281645  0.85739945    -0.06700
C2292       C  0.51140002  0.68122817  0.90380172    -0.32100
N2293       N  0.56493671  0.68517444  0.90828828     0.14400
C2294       C  0.57741231  0.71097252  0.89571095    -0.32100
H2295       H  0.61641894  0.72137142  0.89620892     0.16400
C2296       C  0.43595215  0.73854409  0.93982949    -0.31000
N2297       N  0.47277573  0.75604303  0.95411013     0.13200
C2298       C  0.50032085  0.77170697  0.93517686    -0.31000
C2299       C  0.38331717  0.74682918  0.84812071    -0.31300
N2300       N  0.39431573  0.77503591  0.84030248     0.13700
H2301       H  0.34299641  0.73865687  0.85139116     0.16300
C2302       C  0.44768865  0.77923904  0.84462378    -0.31300
H2303       H  0.46652787  0.80135635  0.84579359     0.16300
H2304       H  0.53186607  0.78734823  0.94213922     0.16300
H2305       H  0.48749052  0.66429998  0.91345708     0.16400
H2306       H  0.41292983  0.72167197  0.95016805     0.16300
O2307       O  0.04172077  0.55652434  0.53779189    -0.75100
O2308       O  0.10858726  0.53025831  0.00953009    -0.54000
C2309       C  0.09143781  0.54867184  0.53237143     0.78600
O2310       O  0.86252749  0.94981789  0.53265065    -0.59700
O2311       O  0.79518389  0.97350483  0.00968417    -0.52800
C2312       C  0.81285519  0.95757705  0.53052190     0.70600
O2313       O  0.03860006  0.93649051  0.52353937    -0.74300
O2314       O  0.10730295  0.95883271  0.00181802    -0.54800
C2315       C  0.08876354  0.93906488  0.51735544     0.76600
O2316       O  0.86619548  0.57185019  0.52516071    -0.59400
O2317       O  0.79844242  0.54531175  0.00145446    -0.52500
C2318       C  0.81624819  0.56761620  0.51877969     0.73200
Zr2319     Zr  0.95329609  0.54637519  0.51551102     2.54700
O2320       O  0.93917894  0.54758128  0.56938890    -0.80000
O2321       O  0.97031234  0.60072475  0.51506200    -0.93400
Zr2322     Zr  0.95105862  0.95787948  0.01408018     2.64700
O2323       O  0.95815706  0.96533651  0.56701756    -0.98400
O2324       O  0.93897212  0.90281277  0.01125070    -0.80400
O2325       O  0.00758030  0.00045410  0.51513455    -0.83800
O2326       O  0.89764132  0.50324818  0.51462509    -2.18500
O2327       O  0.86430193  0.54967627  0.90692537    -0.67200
O2328       O  0.79637216  0.52823982  0.93170675    -0.51700
C2329       C  0.81394321  0.54397250  0.91072273     0.71600
O2330       O  0.04569684  0.93925902  0.90398727    -0.60100
O2331       O  0.11127810  0.96341123  0.93251023    -0.52100
C2332       C  0.09556776  0.94565186  0.90946997     0.73400
O2333       O  0.86552288  0.93177672  0.91200816    -0.71500
O2334       O  0.79895916  0.95932969  0.93900994    -0.50200
C2335       C  0.81560822  0.93761472  0.91903677     0.74800
O2336       O  0.04383657  0.55777475  0.91849764    -0.66800
O2337       O  0.10998801  0.53350922  0.94269559    -0.54000
C2338       C  0.09353262  0.55353782  0.92540205     0.73200
Zr2339     Zr  0.95348257  0.53940344  0.92712627     2.77500
O2340       O  0.96796991  0.53192113  0.87306369    -0.97600
O2341       O  0.94230200  0.59469140  0.92861715    -0.78400
Zr2342     Zr  0.95541420  0.94963719  0.92658236     2.70100
O2343       O  0.94809284  0.94069180  0.87237943    -0.79600
O2344       O  0.96724843  0.89550488  0.93271503    -0.98700
Zr2345     Zr  0.06234080  0.99630517  0.97242886     2.21500
Zr2346     Zr  0.84272857  0.50113543  0.97077952     2.11100
O2347       O  0.89919080  0.49547634  0.92648679    -2.47400
O2348       O  0.00707679  0.49412165  0.92610665    -0.79400
O2349       O  0.89944315  0.54501474  0.97108816    -0.71600
O2350       O  0.00704460  0.95198028  0.97061380    -2.32600
O2351       O  0.00713173  0.54314999  0.97102660    -2.28800
O2352       O  0.89875687  0.95449850  0.97002449    -0.73400
H2353       H  0.87723179  0.00622257  0.53255543     0.78600
H2354       H  0.02881736  0.93344723  0.96962534     0.79700
H2355       H  0.87751728  0.49336235  0.90865265     0.81900
H2356       H  0.02967176  0.56088254  0.97229791     0.79500
H2357       H  0.95848467  0.89606850  0.02863056     0.42600
H2358       H  0.94968445  0.89297175  0.95216225     0.41600
H2359       H  0.93288363  0.96005015  0.86625048     0.41200
H2360       H  0.99221184  0.51371716  0.86974697     0.39200
H2361       H  0.90969348  0.59966765  0.94119255     0.42300
H2362       H  0.93987772  0.61011066  0.00067507     0.37100
H2363       H  0.95237175  0.56781454  0.57764513     0.43200
H2364       H  0.99017700  0.97827394  0.57068937     0.39600
H2365       H  0.93298538  0.52491072  0.86468889     0.44500
H2366       H  0.94798140  0.60710972  0.49850499     0.43300
H2367       H  0.92728948  0.97904075  0.57365000     0.43400
H2368       H  0.94325431  0.88496473  0.91761645     0.43700
C2369       C  0.73613242  0.89343537  0.85646853    -0.20100
C2370       C  0.71080263  0.86996023  0.87075050    -0.06700
C2371       C  0.70583943  0.87773184  0.90296660     0.14200
C2372       C  0.74111729  0.89927891  0.91801012    -0.20200
C2373       C  0.77542781  0.91717955  0.90252507    -0.06700
C2374       C  0.77067987  0.91513233  0.87116757     0.14200
C2375       C  0.80180004  0.93591509  0.85286785    -0.23500
H2376       H  0.72862136  0.89527160  0.83307977     0.15400
H2377       H  0.73995005  0.90321055  0.94228370     0.15500
C2378       C  0.65855037  0.87139114  0.92257103    -0.23500
H2379       H  0.79128619  0.93246090  0.82875912     0.05700
H2380       H  0.84560431  0.93111032  0.85464860     0.08900
H2381       H  0.79313685  0.96016545  0.86103183     0.08900
H2382       H  0.67284344  0.86289874  0.94364021     0.08900
H2383       H  0.62909354  0.85583028  0.91199865     0.08900
H2384       H  0.63633916  0.89322990  0.92928897     0.05700
C2385       C  0.62671882  0.79714571  0.83578864    -0.20100
C2386       C  0.65425956  0.81476566  0.85909327    -0.06700
C2387       C  0.64728791  0.80386876  0.88794778     0.14200
C2388       C  0.60285521  0.78509703  0.89318947    -0.20200
C2389       C  0.56656196  0.77443176  0.87053469    -0.06700
C2390       C  0.58467796  0.77722831  0.84078815     0.14200
C2391       C  0.56403036  0.75811561  0.81351946    -0.23500
H2392       H  0.63791741  0.79923633  0.81270249     0.15400
H2393       H  0.60023057  0.77634683  0.91468181     0.15500
C2394       C  0.68954008  0.80565751  0.91201943    -0.23500
H2395       H  0.53173139  0.77083859  0.80279972     0.05700
H2396       H  0.54934936  0.73574222  0.81901237     0.08900
H2397       H  0.59700337  0.75271183  0.79678439     0.08900
H2398       H  0.67104547  0.81316979  0.93416094     0.08900
H2399       H  0.72335909  0.82049659  0.90725137     0.08900
H2400       H  0.70612816  0.78235958  0.91417345     0.05700
C2401       C  0.14840855  0.88472034  0.56987781    -0.20100
C2402       C  0.19925700  0.87602048  0.55714602    -0.06700
C2403       C  0.21167388  0.88784629  0.52911209     0.14200
C2404       C  0.17485288  0.90809576  0.51683149    -0.20200
C2405       C  0.12631417  0.91774316  0.53131844    -0.06700
C2406       C  0.11306843  0.90552413  0.55837371     0.14200
C2407       C  0.06333576  0.91544703  0.57693370    -0.23500
H2408       H  0.13642724  0.87664056  0.59041338     0.15400
H2409       H  0.18589530  0.91903233  0.99832828     0.15500
C2410       C  0.26275175  0.88011724  0.51112851    -0.23500
H2411       H  0.06305200  0.90601626  0.59898783     0.05700
H2412       H  0.02630892  0.90718582  0.56524834     0.08900
H2413       H  0.06203413  0.94073942  0.58154470     0.08900
H2414       H  0.26621233  0.85517473  0.50472619     0.08900
H2415       H  0.29862323  0.88860614  0.52353878     0.08900
H2416       H  0.26522684  0.89362185  0.99223428     0.05700
C2417       C  0.33325470  0.79688576  0.54471242    -0.20100
C2418       C  0.38458689  0.80759172  0.55303837    -0.06700
C2419       C  0.38976556  0.83951417  0.55363554     0.14200
C2420       C  0.34581904  0.85778278  0.56476197    -0.20200
C2421       C  0.29221633  0.84694117  0.56209376    -0.06700
C2422       C  0.28773877  0.81662172  0.54689092     0.14200
C2423       C  0.23645368  0.80362575  0.53356631    -0.23500
H2424       H  0.32846901  0.77301329  0.53660963     0.15400
H2425       H  0.35507034  0.88103588  0.57189232     0.15500
C2426       C  0.41586432  0.85215106  0.52708665    -0.23500
H2427       H  0.24410626  0.79488869  0.50977785     0.05700
H2428       H  0.20344131  0.82072552  0.53347598     0.08900
H2429       H  0.22323526  0.78429464  0.54579136     0.08900
H2430       H  0.38511060  0.85798314  0.01208379     0.08900
H2431       H  0.44581945  0.83615847  0.51532183     0.08900
H2432       H  0.43469954  0.87442519  0.53417456     0.05700
C2433       C  0.55972814  0.87350930  0.81118317    -0.20100
C2434       C  0.57301940  0.87197686  0.78053305    -0.06700
C2435       C  0.62852742  0.86650494  0.77330839     0.14200
C2436       C  0.66356556  0.85570905  0.79447577    -0.20200
C2437       C  0.65100894  0.85622479  0.82532943    -0.06700
C2438       C  0.59770317  0.86788126  0.83341771     0.14200
C2439       C  0.57793533  0.87388009  0.86517023    -0.23500
H2440       H  0.51922205  0.87984640  0.81847793     0.15400
H2441       H  0.70051162  0.84642744  0.78523362     0.15500
C2442       C  0.65460852  0.87421308  0.74482364    -0.23500
H2443       H  0.53705484  0.88472050  0.86687055     0.05700
H2444       H  0.60475224  0.89039814  0.87755512     0.08900
H2445       H  0.57411735  0.85211509  0.87522175     0.08900
H2446       H  0.64163058  0.89744638  0.74027613     0.08900
H2447       H  0.64618666  0.85631090  0.72634535     0.08900
H2448       H  0.69892153  0.87607917  0.74698622     0.05700
C2449       C  0.25683048  0.92053957  0.65091046    -0.20100
C2450       C  0.30669831  0.93181674  0.64321493    -0.06700
C2451       C  0.31605020  0.93432611  0.61260184     0.14200
C2452       C  0.28558282  0.91626585  0.59148248    -0.20200
C2453       C  0.25259920  0.89308026  0.60093703    -0.06700
C2454       C  0.23059807  0.89948583  0.63100121     0.14200
C2455       C  0.18281715  0.88532344  0.64550150    -0.23500
H2456       H  0.24313934  0.92341498  0.67400771     0.15400
H2457       H  0.29349196  0.91755488  0.56795611     0.15500
C2458       C  0.35721327  0.95560575  0.60211727    -0.23500
H2459       H  0.16027877  0.86790361  0.63224153     0.05700
H2460       H  0.19677958  0.87445627  0.66545971     0.08900
H2461       H  0.15304261  0.90371403  0.65316946     0.08900
H2462       H  0.38855304  0.94235859  0.58824720     0.08900
H2463       H  0.37672565  0.96900303  0.62127526     0.08900
H2464       H  0.33711688  0.97205330  0.58838023     0.05700
C2465       C  0.79446735  0.58069575  0.87281203    -0.20100
C2466       C  0.77572654  0.55691100  0.88858180    -0.06700
C2467       C  0.72429575  0.54540809  0.88075919     0.14200
C2468       C  0.69297366  0.55899756  0.85906366    -0.20200
C2469       C  0.70937687  0.58470198  0.84449224    -0.06700
C2470       C  0.76404286  0.59417995  0.85092249     0.14200
C2471       C  0.79433202  0.61764761  0.83503334    -0.23500
H2472       H  0.83446961  0.58920089  0.87779396     0.15400
H2473       H  0.65338306  0.55030642  0.85507647     0.15500
C2474       C  0.70130699  0.51907201  0.89542377    -0.23500
H2475       H  0.83489403  0.62224482  0.84460811     0.05700
H2476       H  0.77389537  0.64025961  0.83660969     0.08900
H2477       H  0.80230797  0.60865065  0.81144601     0.08900
H2478       H  0.69576488  0.52564117  0.91981452     0.08900
H2479       H  0.73971368  0.99829337  0.88730372     0.08900
H2480       H  0.67226967  0.01009338  0.87896741     0.05700
C2481       C  0.67790497  0.64415888  0.88253524    -0.20100
C2482       C  0.64491690  0.62166803  0.86714651    -0.06700
C2483       C  0.59957341  0.61227630  0.88425871     0.14200
C2484       C  0.58256974  0.63126241  0.90978091    -0.20200
C2485       C  0.60241315  0.66089410  0.91454460    -0.06700
C2486       C  0.65722672  0.66333960  0.90709648     0.14200
C2487       C  0.69313198  0.68509374  0.92542757    -0.23500
H2488       H  0.71741075  0.64869780  0.87420648     0.15400
H2489       H  0.54576404  0.62588747  0.92116657     0.15500
C2490       C  0.56525191  0.58433081  0.87731490    -0.23500
H2491       H  0.73485934  0.68423786  0.91613072     0.05700
H2492       H  0.69492843  0.67841496  0.94861255     0.08900
H2493       H  0.67807325  0.70900420  0.92666311     0.08900
H2494       H  0.57531471  0.56949348  0.85688869     0.08900
H2495       H  0.52249022  0.59171286  0.87507883     0.08900
H2496       H  0.56783191  0.56990786  0.89621400     0.05700
C2497       C  0.75811246  0.91379357  0.59459612    -0.20100
C2498       C  0.70431816  0.92419638  0.59897781    -0.06700
C2499       C  0.69012663  0.95017287  0.58332142     0.14200
C2500       C  0.72506719  0.96001410  0.56090684    -0.20200
C2501       C  0.77575060  0.94608137  0.55404656    -0.06700
C2502       C  0.79265898  0.92295092  0.57234307     0.14200
C2503       C  0.84641086  0.90600290  0.56842449    -0.23500
H2504       H  0.77383630  0.89695000  0.60779936     0.15400
H2505       H  0.71287860  0.97916483  0.54894122     0.15500
C2506       C  0.64077791  0.96982172  0.59150172    -0.23500
H2507       H  0.85021281  0.88709969  0.58298107     0.05700
H2508       H  0.87996941  0.92169358  0.57460161     0.08900
H2509       H  0.85098401  0.89543668  0.54498603     0.08900
H2510       H  0.64122103  0.97788824  0.61573575     0.08900
H2511       H  0.60365180  0.95738307  0.58592829     0.08900
H2512       H  0.63935858  0.99050283  0.57918997     0.05700
C2513       C  0.66148277  0.82684802  0.55296989    -0.20100
C2514       C  0.61128032  0.83321807  0.54123319    -0.06700
C2515       C  0.60053308  0.86394483  0.53675656     0.14200
C2516       C  0.62657917  0.88672482  0.55530862    -0.20200
C2517       C  0.65794779  0.87821226  0.57919916    -0.06700
C2518       C  0.68475337  0.84857275  0.57347524     0.14200
C2519       C  0.73430921  0.83655247  0.58835708    -0.23500
H2520       H  0.67693681  0.80353698  0.55127826     0.15400
H2521       H  0.61873060  0.91049647  0.55275026     0.15500
C2522       C  0.56171435  0.87250172  0.51336278    -0.23500
H2523       H  0.76562220  0.82980509  0.57097229     0.05700
H2524       H  0.72368310  0.81592219  0.59940499     0.08900
H2525       H  0.75338007  0.85202881  0.60535794     0.08900
H2526       H  0.52835857  0.88706082  0.52384658     0.08900
H2527       H  0.54450954  0.85185135  0.50087400     0.08900
H2528       H  0.58322095  0.88551233  0.49710814     0.05700
C2529       C  0.52119580  0.90045437  0.64182957    -0.20100
C2530       C  0.52980293  0.91357167  0.67112503    -0.06700
C2531       C  0.57896474  0.92996485  0.67613928     0.14200
C2532       C  0.61581847  0.93201257  0.65217437    -0.20200
C2533       C  0.60865783  0.91610282  0.62346371    -0.06700
C2534       C  0.55511700  0.90589655  0.61784173     0.14200
C2535       C  0.52607095  0.90769035  0.58884645    -0.23500
H2536       H  0.48527184  0.88744825  0.63666299     0.15400
H2537       H  0.65465538  0.94216046  0.65721875     0.15500
C2538       C  0.59724348  0.94400359  0.70640177    -0.23500
H2539       H  0.48464877  0.91732104  0.59311721     0.05700
H2540       H  0.52201313  0.88463627  0.57751954     0.08900
H2541       H  0.54438381  0.92327410  0.57424418     0.08900
H2542       H  0.57310365  0.93737494  0.72538886     0.08900
H2543       H  0.59669068  0.96930792  0.70686728     0.08900
H2544       H  0.63938537  0.93649097  0.71019728     0.05700
C2545       C  0.78814775  0.77717894  0.80625737    -0.20100
C2546       C  0.79891613  0.79124339  0.78051116    -0.06700
C2547       C  0.80470644  0.82326846  0.78610436     0.14200
C2548       C  0.77908444  0.83917268  0.81183891    -0.20200
C2549       C  0.74349137  0.82415384  0.83088940    -0.06700
C2550       C  0.75912076  0.79226552  0.83088080     0.14200
C2551       C  0.75537709  0.77433800  0.85756195    -0.23500
H2552       H  0.80454340  0.75440727  0.80741590     0.15400
H2553       H  0.78267627  0.86342851  0.81341353     0.15500
C2554       C  0.83905866  0.84114333  0.76654143    -0.23500
H2555       H  0.78036017  0.75298181  0.85472788     0.05700
H2556       H  0.71413158  0.76623684  0.86077991     0.08900
H2557       H  0.77255461  0.78783881  0.87720671     0.08900
H2558       H  0.81542904  0.86064731  0.75926471     0.08900
H2559       H  0.85505691  0.82697723  0.74649559     0.08900
H2560       H  0.87384569  0.85049943  0.77968813     0.05700
C2561       C  0.71260309  0.62074428  0.78761595    -0.20100
C2562       C  0.68236571  0.63185944  0.81373386    -0.06700
C2563       C  0.66258415  0.66303105  0.81391286     0.14200
C2564       C  0.67765529  0.68074672  0.79114685    -0.20200
C2565       C  0.71475523  0.67083372  0.76873029    -0.06700
C2566       C  0.73167483  0.63989181  0.76639122     0.14200
C2567       C  0.77086786  0.62697625  0.74242587    -0.23500
H2568       H  0.72475317  0.59700290  0.78465876     0.15400
H2569       H  0.66156124  0.70392262  0.79157628     0.15500
C2570       C  0.62527861  0.68090339  0.83601561    -0.23500
H2571       H  0.78249604  0.60290830  0.74517359     0.05700
H2572       H  0.80820334  0.64061099  0.74346892     0.08900
H2573       H  0.75216382  0.62715801  0.72008440     0.08900
H2574       H  0.64738986  0.70062134  0.84711749     0.08900
H2575       H  0.60719902  0.66885262  0.85321680     0.08900
H2576       H  0.59076789  0.68996018  0.82395444     0.05700
C2577       C  0.66370220  0.83412595  0.66125158    -0.20100
C2578       C  0.71085002  0.83943780  0.67704435    -0.06700
C2579       C  0.73889141  0.86668789  0.67424634     0.14200
C2580       C  0.72006371  0.88710575  0.65414082    -0.20200
C2581       C  0.67752974  0.87935265  0.63403797    -0.06700
C2582       C  0.64675310  0.85271951  0.63962240     0.14200
C2583       C  0.59785512  0.84030081  0.62274196    -0.23500
H2584       H  0.64196035  0.81342718  0.66431858     0.15400
H2585       H  0.74009118  0.90868821  0.65354174     0.15500
C2586       C  0.78994693  0.87358760  0.69125067    -0.23500
H2587       H  0.60654785  0.81638710  0.61313635     0.05700
H2588       H  0.58490749  0.85252330  0.60395254     0.08900
H2589       H  0.56313551  0.83995914  0.63849346     0.08900
H2590       H  0.81952206  0.85438030  0.68657325     0.08900
H2591       H  0.78075170  0.87704897  0.71553559     0.08900
H2592       H  0.80889275  0.89472433  0.68485929     0.05700
C2593       C  0.15833559  0.60825022  0.87636592    -0.20100
C2594       C  0.20361841  0.61960599  0.89289272    -0.06700
C2595       C  0.21198882  0.60814839  0.92124525     0.14200
C2596       C  0.17716833  0.58540661  0.93031147    -0.20200
C2597       C  0.13292318  0.57457528  0.91320856    -0.06700
C2598       C  0.12425009  0.58608400  0.88546283     0.14200
C2599       C  0.08099387  0.57405397  0.86399900    -0.23500
H2600       H  0.14981203  0.61625743  0.85499821     0.15400
H2601       H  0.18452665  0.57585263  0.95098009     0.15500
C2602       C  0.25636785  0.61872870  0.94253140    -0.23500
H2603       H  0.08546767  0.58250839  0.84162094     0.05700
H2604       H  0.04045498  0.58175155  0.87263215     0.08900
H2605       H  0.08354307  0.54867977  0.86060810     0.08900
H2606       H  0.25018642  0.64303040  0.95090887     0.08900
H2607       H  0.29676179  0.61531567  0.93217859     0.08900
H2608       H  0.25681867  0.60586937  0.96257320     0.05700
C2609       C  0.34859726  0.64210387  0.87830183    -0.20100
C2610       C  0.29732680  0.65158281  0.89041641    -0.06700
C2611       C  0.29641997  0.68147349  0.90682340     0.14200
C2612       C  0.34111657  0.70107337  0.90576815    -0.20200
C2613       C  0.38825615  0.69251720  0.88891929    -0.06700
C2614       C  0.39029153  0.66245532  0.87430499     0.14200
C2615       C  0.43203135  0.65234100  0.85063715    -0.23500
H2616       H  0.35580277  0.61978164  0.86751212     0.15400
H2617       H  0.33706443  0.72415699  0.91662485     0.15500
C2618       C  0.24728509  0.69508914  0.92331469    -0.23500
H2619       H  0.41929017  0.63189487  0.83605423     0.05700
H2620       H  0.47081187  0.64604747  0.86052638     0.08900
H2621       H  0.43697051  0.67088831  0.83597726     0.08900
H2622       H  0.25795599  0.70287611  0.94681260     0.08900
H2623       H  0.21496476  0.67843677  0.92407916     0.08900
H2624       H  0.23186267  0.71499974  0.91232131     0.05700
C2625       C  0.78619730  0.62236619  0.53002988    -0.20100
C2626       C  0.77829996  0.59142740  0.53402293    -0.06700
C2627       C  0.74455210  0.58479869  0.55772081     0.14200
C2628       C  0.72165197  0.60884477  0.57732731    -0.20200
C2629       C  0.72763921  0.64054080  0.57350835    -0.06700
C2630       C  0.76195745  0.64674383  0.54904316     0.14200
C2631       C  0.77793455  0.67869906  0.54370254    -0.23500
H2632       H  0.81424068  0.62753081  0.51264981     0.15400
H2633       H  0.69998875  0.60206872  0.59640364     0.15500
C2634       C  0.73473686  0.55208566  0.56334435    -0.23500
H2635       H  0.79966675  0.67906759  0.52199917     0.05700
H2636       H  0.80616513  0.68766400  0.56130059     0.08900
H2637       H  0.74242126  0.69415656  0.54300569     0.08900
H2638       H  0.77354361  0.54035494  0.56759578     0.08900
H2639       H  0.71536934  0.53990707  0.54344860     0.08900
H2640       H  0.70772434  0.55053614  0.58298253     0.05700
C2641       C  0.58230539  0.72597062  0.59389482    -0.20100
C2642       C  0.55954588  0.71854403  0.56566322    -0.06700
C2643       C  0.58731146  0.69556188  0.54644563     0.14200
C2644       C  0.63847959  0.68387402  0.55487643    -0.20200
C2645       C  0.66021881  0.69014043  0.58409894    -0.06700
C2646       C  0.63097926  0.71342000  0.60325152     0.14200
C2647       C  0.64602150  0.72678290  0.63446139    -0.23500
H2648       H  0.56159989  0.74309807  0.60926008     0.15400
H2649       H  0.65819080  0.66686265  0.53918512     0.15500
C2650       C  0.56195909  0.67927678  0.51913177    -0.23500
H2651       H  0.61336458  0.72244807  0.65051678     0.05700
H2652       H  0.65011446  0.75193400  0.63462057     0.08900
H2653       H  0.68333324  0.71849393  0.64355133     0.08900
H2654       H  0.58238686  0.68224095  0.00025231     0.08900
H2655       H  0.51872849  0.68523500  0.51723111     0.08900
H2656       H  0.56115424  0.65351704  0.02331373     0.05700
C2657       C  0.76364505  0.71390224  0.61138176    -0.20100
C2658       C  0.75118969  0.68291088  0.61397134    -0.06700
C2659       C  0.78463660  0.66841221  0.63460645     0.14200
C2660       C  0.80750332  0.68664172  0.65903929    -0.20200
C2661       C  0.80266893  0.71868856  0.66151096    -0.06700
C2662       C  0.79291834  0.73114940  0.63401282     0.14200
C2663       C  0.82032528  0.75968163  0.62628012    -0.23500
H2664       H  0.74870110  0.72519107  0.59267165     0.15400
H2665       H  0.82593669  0.67577390  0.67711770     0.15500
C2666       C  0.79217684  0.63424606  0.63333588    -0.23500
H2667       H  0.79116488  0.77597265  0.61760817     0.05700
H2668       H  0.85052656  0.75327922  0.60821991     0.08900
H2669       H  0.84207531  0.77110586  0.64571962     0.08900
H2670       H  0.81095666  0.62542952  0.61156167     0.08900
H2671       H  0.75338648  0.62294341  0.63654207     0.08900
H2672       H  0.81957722  0.62772178  0.65118379     0.05700
C2673       C  0.57401975  0.57089047  0.76934889    -0.20100
C2674       C  0.53307489  0.59381153  0.76922919    -0.06700
C2675       C  0.53451829  0.61807701  0.79208167     0.14200
C2676       C  0.56810671  0.61575354  0.81659778    -0.20200
C2677       C  0.61274523  0.59498382  0.81633394    -0.06700
C2678       C  0.61394621  0.57121203  0.79203884     0.14200
C2679       C  0.65379307  0.54470085  0.79018274    -0.23500
H2680       H  0.57675165  0.55318926  0.75081602     0.15400
H2681       H  0.56191953  0.63280768  0.83504425     0.15500
C2682       C  0.50567598  0.64831057  0.78946999    -0.23500
H2683       H  0.65027773  0.52984160  0.76876420     0.05700
H2684       H  0.64518735  0.53002368  0.80820662     0.08900
H2685       H  0.69598452  0.55216963  0.79163553     0.08900
H2686       H  0.46145452  0.64610715  0.78900273     0.08900
H2687       H  0.51941063  0.65802499  0.76891492     0.08900
H2688       H  0.51499832  0.66547116  0.80841386     0.05700
C2689       C  0.23418555  0.61539623  0.81925222    -0.20100
C2690       C  0.25833595  0.61261565  0.84727472    -0.06700
C2691       C  0.29050952  0.58540336  0.84792697     0.14200
C2692       C  0.31827593  0.57417741  0.82141920    -0.20200
C2693       C  0.30798347  0.58688985  0.79447292    -0.06700
C2694       C  0.25986085  0.60433504  0.79282835     0.14200
C2695       C  0.23669830  0.61403931  0.76443180    -0.23500
H2696       H  0.19847212  0.62945186  0.81741478     0.15400
H2697       H  0.35070032  0.55743421  0.82220753     0.15500
C2698       C  0.29939074  0.56947053  0.87570043    -0.23500
H2699       H  0.19756787  0.62660922  0.76808995     0.05700
H2700       H  0.22854788  0.59330439  0.74910680     0.08900
H2701       H  0.26448279  0.62989300  0.75462566     0.08900
H2702       H  0.32544669  0.54869648  0.87089873     0.08900
H2703       H  0.26022311  0.56188793  0.88410861     0.08900
H2704       H  0.31950530  0.58430361  0.89329619     0.05700
C2705       C  0.57788084  0.62785335  0.63175643    -0.20100
C2706       C  0.58153275  0.63911333  0.66180280    -0.06700
C2707       C  0.62534594  0.65705781  0.67132491     0.14200
C2708       C  0.66637455  0.66148311  0.65098848    -0.20200
C2709       C  0.66259509  0.65241559  0.61974818    -0.06700
C2710       C  0.61552288  0.63514586  0.61039369     0.14200
C2711       C  0.60078371  0.62338616  0.57867924    -0.23500
H2712       H  0.54416119  0.61364240  0.62459450     0.15400
H2713       H  0.69851090  0.67511849  0.66030182     0.15500
C2714       C  0.62674508  0.67457712  0.70205396    -0.23500
H2715       H  0.59598808  0.59819154  0.57719827     0.05700
H2716       H  0.63009401  0.62745570  0.56128989     0.08900
H2717       H  0.56172404  0.63394391  0.57285691     0.08900
H2718       H  0.64692648  0.66049080  0.71796041     0.08900
H2719       H  0.58549007  0.68138722  0.71027637     0.08900
H2720       H  0.64898924  0.69622359  0.70149425     0.05700
C2721       C  0.16862574  0.91624341  0.83592170    -0.20100
C2722       C  0.20782769  0.89537882  0.84499865    -0.06700
C2723       C  0.21837253  0.89829045  0.87672516     0.14200
C2724       C  0.18161100  0.91490561  0.89708422    -0.20200
C2725       C  0.13704221  0.93117959  0.88730705    -0.06700
C2726       C  0.13267104  0.93317989  0.85616298     0.14200
C2727       C  0.09070952  0.95374384  0.84399085    -0.23500
H2728       H  0.16425844  0.91850736  0.81237828     0.15400
H2729       H  0.18792598  0.91519372  0.92099599     0.15500
C2730       C  0.27023993  0.88775272  0.89016785    -0.23500
H2731       H  0.09461228  0.95390634  0.81932784     0.05700
H2732       H  0.08859039  0.47427051  0.85332698     0.08900
H2733       H  0.04968109  0.94577604  0.84875580     0.08900
H2734       H  0.30539913  0.89107634  0.87556783     0.08900
H2735       H  0.26780422  0.86379621  0.89537455     0.08900
H2736       H  0.27844387  0.90155497  0.91174464     0.05700
C2737       C  0.30520523  0.80104588  0.85017470    -0.20100
C2738       C  0.35587323  0.79938507  0.83585443    -0.06700
C2739       C  0.36956184  0.82298246  0.81853260     0.14200
C2740       C  0.33581626  0.84879632  0.81860733    -0.20200
C2741       C  0.28273018  0.85091271  0.83142860    -0.06700
C2742       C  0.26797351  0.82527613  0.84720239     0.14200
C2743       C  0.21281643  0.82121763  0.86033834    -0.23500
H2744       H  0.29372907  0.78292639  0.86345639     0.15400
H2745       H  0.34943267  0.86431824  0.80350663     0.15500
C2746       C  0.41692394  0.82028154  0.79689346    -0.23500
H2747       H  0.21632212  0.81732134  0.88432394     0.05700
H2748       H  0.19352000  0.80105513  0.84816555     0.08900
H2749       H  0.18621431  0.84116690  0.85935032     0.08900
H2750       H  0.43275974  0.79651416  0.79237970     0.08900
H2751       H  0.44959140  0.83544421  0.80577539     0.08900
H2752       H  0.40419912  0.82711807  0.77479367     0.05700
C2753       C  0.31161669  0.91492721  0.81072346    -0.20100
C2754       C  0.26790267  0.89699043  0.79931760    -0.06700
C2755       C  0.26100885  0.89614508  0.76789537     0.14200
C2756       C  0.30649791  0.89827491  0.74977267    -0.20200
C2757       C  0.35527613  0.91141594  0.76054747    -0.06700
C2758       C  0.35586893  0.92157175  0.79195087     0.14200
C2759       C  0.40322808  0.93698931  0.80745331    -0.23500
H2760       H  0.31569446  0.91948097  0.83473699     0.15400
H2761       H  0.30219671  0.88907700  0.72672767     0.15500
C2762       C  0.20736288  0.89335069  0.75212228    -0.23500
H2763       H  0.41733690  0.92333176  0.82550054     0.05700
H2764       H  0.39053742  0.96009125  0.81767387     0.08900
H2765       H  0.43811660  0.93947843  0.79259654     0.08900
H2766       H  0.17253108  0.89362276  0.76759991     0.08900
H2767       H  0.20673489  0.87219298  0.73634369     0.08900
H2768       H  0.20158220  0.91319308  0.73892439     0.05700
C2769       C  0.14600364  0.69169137  0.83592602    -0.20100
C2770       C  0.18124123  0.69824327  0.81300951    -0.06700
C2771       C  0.23672969  0.69337716  0.81597868     0.07200
C2772       C  0.25525472  0.67853101  0.83984205    -0.20200
C2773       C  0.21964154  0.66592571  0.86022106    -0.06700
C2774       C  0.16450757  0.67665464  0.86038899     0.14200
C2775       C  0.12365147  0.67425015  0.88514136    -0.23500
H2776       H  0.10379497  0.69823630  0.83458275     0.15400
H2777       H  0.29769310  0.67260925  0.83946860     0.15500
C2778       C  0.27640624  0.70201769  0.79269553    -0.23500
H2779       H  0.10863000  0.69756047  0.89343472     0.05700
H2780       H  0.13930225  0.66402303  0.90477305     0.08900
H2781       H  0.08880236  0.66071771  0.87629690     0.08900
H2782       H  0.27469231  0.72710645  0.79150095     0.08900
H2783       H  0.26670926  0.69006083  0.77044301     0.08900
H2784       H  0.31857104  0.69565753  0.79799123     0.05700
C2785       C  0.24410070  0.80647858  0.63949245    -0.20100
C2786       C  0.19370361  0.79349709  0.63664618    -0.06700
C2787       C  0.15952769  0.80057608  0.61348142     0.14200
C2788       C  0.17636514  0.82176987  0.59396913    -0.20200
C2789       C  0.22510302  0.83806251  0.59870860    -0.06700
C2790       C  0.26032913  0.82884790  0.62179251     0.14200
C2791       C  0.31449436  0.84230087  0.63070064    -0.23500
H2792       H  0.26978883  0.80036322  0.65752328     0.15400
H2793       H  0.15006474  0.82614394  0.57578035     0.15500
C2794       C  0.10461785  0.78671779  0.61035158    -0.23500
H2795       H  0.32673667  0.86212062  0.61958419     0.05700
H2796       H  0.31374251  0.85030050  0.65502194     0.08900
H2797       H  0.34654571  0.82435782  0.62648476     0.08900
H2798       H  0.08074692  0.79279771  0.63123357     0.08900
H2799       H  0.10883494  0.76146166  0.60629458     0.08900
H2800       H  0.08205887  0.79505890  0.59140686     0.05700
C2801       C  0.23572305  0.83246233  0.77682041    -0.20100
C2802       C  0.20394248  0.85063105  0.79836260    -0.06700
C2803       C  0.14719579  0.84347909  0.79853463     0.14200
C2804       C  0.12742216  0.81932507  0.77795516    -0.20200
C2805       C  0.16148517  0.80101612  0.75800080    -0.06700
C2806       C  0.21767790  0.80737600  0.75886277     0.14200
C2807       C  0.26174000  0.78786638  0.74188552    -0.23500
H2808       H  0.27757856  0.83777091  0.77402274     0.15400
H2809       H  0.08512971  0.81393136  0.77836037     0.15500
C2810       C  0.10493720  0.86063730  0.81833807    -0.23500
H2811       H  0.30286229  0.79444524  0.74948251     0.05700
H2812       H  0.26135038  0.79076164  0.71769935     0.08900
H2813       H  0.25882358  0.76344870  0.74553888     0.08900
H2814       H  0.09585128  0.88295836  0.80994938     0.08900
H2815       H  0.11642690  0.86339255  0.84214352     0.08900
H2816       H  0.06604942  0.84842649  0.81765964     0.05700
C2817       C  0.19741649  0.60444210  0.56524366    -0.20100
C2818       C  0.19918059  0.59983746  0.59625148    -0.06700
C2819       C  0.16377048  0.57640009  0.60496811     0.14200
C2820       C  0.13121167  0.55955558  0.58348466    -0.20200
C2821       C  0.13192289  0.56427981  0.55316820    -0.06700
C2822       C  0.16563928  0.58701661  0.54418059     0.14200
C2823       C  0.16757833  0.59318837  0.51199344    -0.23500
H2824       H  0.22036399  0.62219752  0.55653432     0.15400
H2825       H  0.10399856  0.54253077  0.59047936     0.15500
C2826       C  0.15820006  0.56800937  0.63647344    -0.23500
H2827       H  0.19517266  0.61202996  0.50808570     0.05700
H2828       H  0.12668842  0.59936067  0.50432891     0.08900
H2829       H  0.18830591  0.07129984  0.49815016     0.08900
H2830       H  0.14212747  0.58752482  0.65152142     0.08900
H2831       H  0.19697480  0.55893881  0.64388983     0.08900
H2832       H  0.12902278  0.54937677  0.63824464     0.05700
C2833       C  0.34876119  0.66404140  0.58065486    -0.20100
C2834       C  0.33629192  0.69514978  0.58852705    -0.06700
C2835       C  0.28119544  0.70223187  0.59624255     0.14200
C2836       C  0.24662741  0.67889797  0.60352814    -0.20200
C2837       C  0.26196606  0.64764216  0.60062648    -0.06700
C2838       C  0.31210940  0.64070219  0.58476548     0.14200
C2839       C  0.33051089  0.60898853  0.57260409    -0.23500
H2840       H  0.38745242  0.65738638  0.57054924     0.15400
H2841       H  0.20767419  0.68623722  0.61177490     0.15500
C2842       C  0.25601071  0.73352051  0.59602524    -0.23500
H2843       H  0.34066347  0.60876654  0.54842583     0.05700
H2844       H  0.29935932  0.59183431  0.57413170     0.08900
H2845       H  0.36707837  0.60215475  0.58462086     0.08900
H2846       H  0.26179198  0.74168876  0.57365411     0.08900
H2847       H  0.27261880  0.74903648  0.61454323     0.08900
H2848       H  0.21164384  0.73354166  0.59891914     0.05700
C2849       C  0.35466961  0.57921047  0.65505219    -0.20100
C2850       C  0.37113639  0.60242183  0.67701164    -0.06700
C2851       C  0.34626437  0.63166194  0.67673159     0.14200
C2852       C  0.30639291  0.63601257  0.65576074    -0.20200
C2853       C  0.28282969  0.61190170  0.63678787    -0.06700
C2854       C  0.30973889  0.58263919  0.63614423     0.14200
C2855       C  0.29559110  0.55410400  0.61642118    -0.23500
H2856       H  0.37700132  0.55787373  0.65212080     0.15400
H2857       H  0.28952549  0.65894450  0.65596839     0.15500
C2858       C  0.35921778  0.65893847  0.69888431    -0.23500
H2859       H  0.33127394  0.54600938  0.60250135     0.05700
H2860       H  0.26242055  0.55676926  0.60096018     0.08900
H2861       H  0.28481513  0.53582624  0.63065641     0.08900
H2862       H  0.40160865  0.66580824  0.69653296     0.08900
H2863       H  0.35077974  0.65398673  0.72215459     0.08900
H2864       H  0.33408289  0.67941672  0.69535143     0.05700
C2865       C  0.17403956  0.66194095  0.69403185    -0.20100
C2866       C  0.13971007  0.68489301  0.68484028    -0.06700
C2867       C  0.12091214  0.67962357  0.65459592     0.14200
C2868       C  0.14489537  0.65576404  0.63455325    -0.20200
C2869       C  0.18958882  0.63822127  0.64303087    -0.06700
C2870       C  0.19359193  0.63729975  0.67475291     0.14200
C2871       C  0.21654985  0.61136325  0.69065817    -0.23500
H2872       H  0.18998958  0.66320702  0.71618611     0.15400
H2873       H  0.13370240  0.65391056  0.61113884     0.15500
C2874       C  0.07942710  0.69966735  0.64138181    -0.23500
H2875       H  0.18469900  0.60346979  0.70544169     0.05700
H2876       H  0.25109833  0.61960745  0.70440711     0.08900
H2877       H  0.23029223  0.59111821  0.67636156     0.08900
H2878       H  0.06870842  0.72050607  0.65609855     0.08900
H2879       H  0.04239250  0.68640018  0.63623586     0.08900
H2880       H  0.09521843  0.70727216  0.62017652     0.05700
loop_ 
_geom_bond_atom_site_label_1 
_geom_bond_atom_site_label_2 
_geom_bond_distance 
_geom_bond_site_symmetry_2 
_ccdc_geom_bond_type 
C1          C658   1.599       .  S
C1          C677   1.605       .  S
C1          C693   1.592       .  S
C1          C709   1.603       .  S
C2            C4   1.547       .  S
C2            C6   1.565       .  S
C2            C5   1.550       .  S
C2          C706   1.573       .  S
C3            C7   1.507       .  S
C3            C9   1.510       .  S
C3            C8   1.563       .  S
C3          C645   1.545       .  S
C4           C12   1.390       .  A
C4            C7   1.387       .  A
C5           C16   1.372       .  A
C5            C8   1.425       .  A
C6           C20   1.402       .  A
C6            C9   1.393       .  A
C7           C10   1.368       .  A
C8           C14   1.381       .  A
C9           C17   1.373       .  A
C10          N11   1.343       .  A
C10          H23   1.083       .  S
N11          C12   1.356       .  A
N11         C626   1.433       .  S
C12          H13   1.070       .  S
C14          N15   1.362   1_455  A
C14          H24   1.081       .  S
N15          C16   1.357   1_655  A
N15          N64   1.409       .  S
C16          H22   1.082       .  S
C17          N18   1.338       .  A
C17          H19   1.083       .  S
N18          C20   1.355       .  A
N18         C610   1.429       .  S
C20          H21   1.082       .  S
C25         C562   1.591       .  S
C25         C581   1.605       .  S
C25         C594   1.592       .  S
C25         C642   1.602       .  S
C26          C28   1.520       .  S
C26          C30   1.517       .  S
C26          C29   1.550       .  S
C26         C690   1.555       .  S
C27          C31   1.542       .  S
C27          C33   1.509       .  S
C27          C32   1.525       .  S
C27         C514   1.552       .  S
C28          C36   1.365       .  A
C28          C31   1.406       .  A
C29          C40   1.385       .  A
C29          C32   1.438       .  A
C30          C44   1.365       .  A
C30          C33   1.390       .  A
C31          C34   1.380       .  A
C32          C38   1.362       .  A
C33          C41   1.365       .  A
C34          N35   1.357       .  A
C34          H47   1.082       .  S
N35          C36   1.347       .  A
N35         C533   1.438       .  S
C36          H37   1.078       .  S
C38        N1479   1.329       .  A
C38        H1488   1.082       .  S
N39        C1478   1.330       .  A
N39        C1480   1.341       .  A
N39        N1529   1.379       .  S
C40        N1479   1.342       .  A
C40        H1486   1.080       .  S
C41          N42   1.350       .  A
C41          H43   1.082       .  S
N42          C44   1.348       .  A
N42         C546   1.424       .  S
C44          H45   1.082       .  S
H46        C1480   1.079       .  S
H48        C1478   1.082       .  S
C49         C469   1.600       .  S
C49         C485   1.601       .  S
C49         C498   1.593       .  S
C49         C549   1.573       .  S
C50         C434   1.562       .  S
C50         C450   1.595       .  S
C50         C530   1.588       .  S
C50         C613   1.588       .  S
C51          C53   1.553       .  S
C51          C55   1.553       .  S
C51          C54   1.545       .  S
C51         C501   1.568       .  S
C52          C56   1.556       .  S
C52          C58   1.536       .  S
C52          C57   1.535       .  S
C52         C386   1.567       .  S
C53          C61   1.395       .  A
C53          C56   1.398       .  A
C54          C65   1.376       .  A
C54          C57   1.408       .  A
C55          C69   1.377       .  A
C55          C58   1.400       .  A
C56          C59   1.374       .  A
C57          C63   1.375       .  A
C58          C66   1.380       .  A
C59          N60   1.354       .  A
C59          H72   1.075       .  S
N60          C61   1.362       .  A
N60         C405   1.456       .  S
C61          H62   1.076       .  S
C63          N64   1.357       .  A
C63          H73   1.082       .  S
N64          C65   1.361       .  A
C65          H71   1.082       .  S
C66          N67   1.353       .  A
C66          H68   1.070       .  S
N67          C69   1.355       .  A
N67         C418   1.442       .  S
C69          H70   1.075       .  S
C74         C338   1.591       .  S
C74         C357   1.564       .  S
C74         C373   1.587       .  S
C74         C421   1.585       .  S
C75         C309   1.594       .  S
C75         C322   1.570       .  S
C75         C402   1.595       .  S
C75         C517   1.584       .  S
C76          C78   1.545       .  S
C76          C80   1.545       .  S
C76          C79   1.530       .  S
C76         C597   1.572       .  S
C77          C81   1.546       .  S
C77          C83   1.534       .  S
C77          C82   1.527       .  S
C77         C370   1.562       .  S
C78          C86   1.381       .  A
C78          C81   1.400       .  A
C79          C82   1.425       .  A
C79        C1530   1.378       .  A
C80          C94   1.388       .  A
C80          C83   1.402       .  A
C81          C84   1.396       .  A
C82        C1528   1.356       .  A
C83          C91   1.373       .  A
C84          N85   1.353       .  A
C84          H97   1.077       .  S
N85          C86   1.348       .  A
N85         C290   1.447       .  S
C86          H87   1.081       .  S
C88        C1522   1.358       .  A
C88          N89   1.333       .  A
C88          H98   1.082       .  S
N89          C90   1.343       .  A
N89        N1479   1.380   1_565  S
C90        C1519   1.378       .  A
C90          H96   1.082       .  S
C91          N92   1.362       .  A
C91          H93   1.066       .  S
N92          C94   1.366       .  A
N92         C274   1.476       .  S
C94          H95   1.076       .  S
C99         C242   1.579       .  S
C99         C261   1.581       .  S
C99         C293   1.576       .  S
C99         C629   1.572       .  S
C100        C210   1.623       .  S
C100        C226   1.602       .  S
C100        C277   1.614       .  S
C100        C389   1.640       .  S
C101        C103   1.527       .  S
C101        C105   1.549       .  S
C101        C104   1.540       .  S
C101        C482   1.566       .  S
C102        C106   1.551       .  S
C102        C108   1.541       .  S
C102        C107   1.519       .  S
C102        C258   1.561       .  S
C103        C111   1.375       .  A
C103        C106   1.402       .  A
C104        C107   1.424       .  A
C104        C835   1.383   1_554  A
C105        C119   1.391       .  A
C105        C108   1.403       .  A
C106        C109   1.384       .  A
C107        C833   1.351   1_554  A
C108        C116   1.374       .  A
C109        N110   1.352       .  A
C109        H122   1.061       .  S
N110        C111   1.346       .  A
N110        C354   1.443       .  S
C111        H112   1.082       .  S
C113        C827   1.350       .  A
C113        N114   1.325       .  A
C113        H123   1.082       .  S
N114        C115   1.348       .  A
N114        N137   1.378       .  S
C115        C824   1.387       .  A
C115        H121   1.079       .  S
C116        N117   1.358       .  A
C116        H118   1.060       .  S
N117        C119   1.366       .  A
N117        C674   1.473       .  S
C119        H120   1.080       .  S
C124        C126   1.529       .  S
C124        C128   1.546       .  S
C124        C127   1.551       .  S
C124        C229   1.568       .  S
C125        C129   1.526       .  S
C125        C131   1.529       .  S
C125        C130   1.530       .  S
C125        C453   1.557       .  S
C126        C134   1.386       .  A
C126        C129   1.390       .  A
C127        C138   1.379       .  A
C127        C130   1.439       .  A
C128        C142   1.383       .  A
C128        C131   1.413       .  A
C129        C132   1.374       .  A
C130        C136   1.356       .  A
C131        C139   1.390       .  A
C132        N133   1.353       .  A
C132        H145   1.081       .  S
N133        C134   1.359       .  A
N133        C325   1.451       .  S
C134        H135   1.078       .  S
C136        N137   1.331       .  A
C136        H146   1.082       .  S
N137        C138   1.338       .  A
C138        H144   1.078       .  S
C139        N140   1.352       .  A
C139        H141   1.082       .  S
N140        C142   1.353       .  A
N140        C578   1.451       .  S
C142        H143   1.083       .  S
O147       Zr159   2.453   1_455  S
O147        C149   1.290       .  A
O148      Zr1625   2.477   1_545  S
O148        C869   1.297       .  A
C149        O868   1.297       .  A
C149        C661   1.501       .  S
O150       Zr882   2.415       .  S
O150        C152   1.280       .  A
O151      Zr1626   2.511       .  S
O151        C872   1.303       .  A
C152        O871   1.304       .  A
C152        C341   1.524       .  S
O153       Zr882   2.410   1_455  S
O153        C155   1.280       .  A
O154       Zr185   2.481       .  S
O154        C875   1.298       .  A
C155        O874   1.298   1_554  A
C155        C245   1.503       .  S
O156       Zr159   2.432       .  S
O156        C158   1.286       .  A
O157       Zr186   2.494       .  S
O157        C878   1.301       .  A
C158        O877   1.303       .  A
C158        C466   1.503       .  S
Zr159       O160   2.435       .  S
Zr159       O161   2.436       .  S
Zr159       O166   2.364       .  S
Zr159      O1605   2.371   1_655  S
Zr159       O909   2.381   1_554  S
Zr159       O911   2.355   1_654  S
O160        H203   0.990       .  S
O161        H206   0.990       .  S
O161        H922   0.990       .  S
Zr162       O870   2.425       .  S
Zr162       O873   2.420   1_655  S
Zr162       O164   2.434       .  S
Zr162       O883   2.436       .  S
Zr162       O190   2.375   1_655  S
Zr162       O192   2.367       .  S
Zr162      O2326   2.372       .  S
Zr162       O885   2.363   1_655  S
O163       Zr882   2.436       .  S
O163        H204   0.990       .  S
O163        H207   0.990       .  S
O164        H197   0.990       .  S
O165      Zr1599   2.373   1_455  S
O165       Zr882   2.364   1_455  S
O165       Zr905   2.391   1_554  S
O166      Zr2322   2.374   1_545  S
O166       Zr906   2.402   1_554  S
O166       H1633   0.967       .  S
O167       Zr179   2.433       .  S
O167        C169   1.288       .  A
O168       Zr186   2.503       .  S
O168        C169   1.302       .  A
C169        C306   1.522       .  S
O170       Zr182   2.472   1_455  S
O170        C172   1.294       .  A
O171       Zr185   2.481       .  S
O171        C172   1.298       .  A
C172        C565   1.513       .  S
O173       Zr182   2.453       .  S
O173        C175   1.290       .  A
O174      Zr1626   2.492       .  S
O174        C175   1.301       .  A
C175        C213   1.506       .  S
O176       Zr179   2.433   1_455  S
O176        C178   1.287       .  A
O177      Zr1625   2.449   1_545  S
O177        C178   1.291       .  A
C178        C437   1.491       .  S
Zr179       O180   2.435       .  S
Zr179       O181   2.434       .  S
Zr179       O187   2.371   1_545  S
Zr179       O188   2.363   1_645  S
Zr179       O191   2.376   1_655  S
Zr179       O189   2.365       .  S
O180        H200   0.990       .  S
O180        H205   0.990       .  S
O181        H201   0.990       .  S
Zr182       O183   2.433       .  S
Zr182       O184   2.435       .  S
Zr182       O192   2.385       .  S
Zr182       O190   2.355   1_655  S
Zr182      O1628   2.376   1_655  S
Zr182      O1627   2.369       .  S
O183        H199   0.989       .  S
O184        H198   0.990       .  S
O184        H208   0.990       .  S
Zr185      O1588   2.486       .  S
Zr185      O1617   2.468       .  S
Zr185       O190   2.400       .  S
Zr185       O885   2.390       .  S
Zr185      O1628   2.404       .  S
Zr185      O1631   2.401       .  S
Zr186      O1591   2.520   1_545  S
Zr186      O1614   2.495   1_545  S
Zr186       O187   2.409   1_545  S
Zr186       O189   2.407       .  S
Zr186       O886   2.403       .  S
Zr186      O1632   2.403   1_545  S
O187      Zr1622   2.365       .  S
O187        H195   0.965       .  S
O188      Zr1622   2.373   1_455  S
O188      Zr1625   2.399       .  S
O189       Zr879   2.385       .  S
O190        H194   0.967       .  S
O191       Zr879   2.354   1_455  S
O191      Zr1625   2.400   1_545  S
O191        H196   0.967       .  S
O192      Zr1626   2.407       .  S
H193       O1606   0.963       .  S
H202        O881   0.990   1_455  S
C209        C210   1.422       .  A
C209        C214   1.411       .  A
C209        H216   1.078       .  S
C210        C211   1.453       .  A
C211        C218   1.506       .  S
C211        C212   1.426       .  A
C212        C213   1.399       .  A
C212        H217   1.085       .  S
C213        C214   1.407       .  A
C214        C215   1.508       .  S
C215        H219   1.111       .  S
C215        H220   1.108       .  S
C215        H221   1.107       .  S
C218        H222   1.109       .  S
C218        H223   1.089       .  S
C218        H224   1.111       .  S
C225        C226   1.424       .  A
C225        C230   1.407       .  A
C225        H232   1.084       .  S
C226        C227   1.436       .  A
C227        C234   1.507       .  S
C227        C228   1.421       .  A
C228        C229   1.412       .  A
C228        H233   1.077       .  S
C229        C230   1.424       .  A
C230        C231   1.511       .  S
C231        H235   1.108       .  S
C231        H236   1.110       .  S
C231        H237   1.111       .  S
C234        H238   1.108       .  S
C234        H239   1.104       .  S
C234        H240   1.110       .  S
C241        C242   1.408       .  A
C241        C246   1.398       .  A
C241        H248   1.063       .  S
C242        C243   1.444       .  A
C243        C250   1.511       .  S
C243        C244   1.418       .  A
C244        C245   1.401       .  A
C244        H969   1.084   1_554  S
C245        C246   1.420       .  A
C246        C247   1.514       .  S
C247        H251   1.111       .  S
C247        H252   1.109       .  S
C247        H253   1.109       .  S
H249        C964   1.084       .  S
C250        H254   1.107       .  S
C250        H255   1.103       .  S
C250        H976   1.111   1_554  S
H256        C970   1.111       .  S
C257        C258   1.405       .  A
C257        C262   1.408       .  A
C257        H264   1.084       .  S
C258        C259   1.408       .  A
C259        C266   1.510       .  S
C259        C260   1.400       .  A
C260        C261   1.421       .  A
C260        H265   1.069       .  S
C261        C262   1.440       .  A
C262        C263   1.506       .  S
C263        H267   1.111       .  S
C263        H268   1.102       .  S
C263        H269   1.110       .  S
C266        H271   1.107       .  S
C266        H272   1.110       .  S
C266        H990   1.111       .  S
H270        C986   1.111       .  S
C273        C274   1.408       .  A
C273        C278   1.415       .  A
C273        H280   1.076       .  S
C274        C275   1.419       .  A
C275        C282   1.499       .  S
C275        C276   1.404       .  A
C276        C277   1.415       .  A
C276        H281   1.059       .  S
C277        C278   1.439       .  A
C278        C279   1.500       .  S
C279        H283   1.111       .  S
C279        H284   1.104       .  S
C279        H285   1.103       .  S
C282        H286   1.105       .  S
C282        H287   1.107       .  S
C282        H288   1.107       .  S
C289        C290   1.395       .  A
C289        C294   1.393       .  A
C289        H296   1.082       .  S
C290        C291   1.408       .  A
C291        C298   1.502       .  S
C291        C292   1.408       .  A
C292        C293   1.415       .  A
C292        H297   1.079       .  S
C293        C294   1.448       .  A
C294        C295   1.518       .  S
C295        H299   1.087       .  S
C295        H300   1.112       .  S
C295        H301   1.111       .  S
C298        H302   1.110       .  S
C298        H303   1.111       .  S
C298        H304   1.111       .  S
C305        C306   1.406       .  A
C305        C310   1.414       .  A
C305        H312   1.083       .  S
C306        C307   1.412       .  A
C307        C314   1.506       .  S
C307        C308   1.420       .  A
C308        C309   1.425       .  A
C308        H313   1.067       .  S
C309        C310   1.446       .  A
C310        C311   1.517       .  S
C311        H315   1.111       .  S
C311        H316   1.105       .  S
C311        H317   1.106       .  S
C314        H318   1.110       .  S
C314       H1759   1.109   1_545  S
C314       H1760   1.111       .  S
H319       C1754   1.107       .  S
H320       C1754   1.111       .  S
C321        C322   1.419       .  A
C321        C326   1.410       .  A
C321        H328   1.078       .  S
C322        C323   1.447       .  A
C323        C330   1.517       .  S
C323        C324   1.400       .  A
C324        C325   1.397       .  A
C324        H329   1.083       .  S
C325        C326   1.406       .  A
C326        C327   1.504       .  S
C327        H331   1.110       .  S
C327        H332   1.111       .  S
C327        H333   1.105       .  S
C330        H334   1.094       .  S
C330        H335   1.110       .  S
C330        H336   1.111       .  S
C337        C338   1.408       .  A
C337        C342   1.406       .  A
C337        H344   1.066       .  S
C338        C339   1.439       .  A
C339        C346   1.506       .  S
C339        C340   1.425       .  A
C340        C341   1.405       .  A
C340        H345   1.083       .  S
C341        C342   1.430       .  A
C342        C343   1.514       .  S
C343        H347   1.111       .  S
C343        H348   1.109       .  S
C343        H349   1.110       .  S
C346        H350   1.109       .  S
C346        H351   1.095       .  S
C346        H352   1.111       .  S
C353        C354   1.392       .  A
C353        C358   1.394       .  A
C353        H360   1.082       .  S
C354        C355   1.408       .  A
C355        C362   1.501       .  S
C355        C356   1.406       .  A
C356        C357   1.406       .  A
C356        H361   1.076       .  S
C357        C358   1.446       .  A
C358        C359   1.511       .  S
C359        H363   1.111       .  S
C359        H364   1.111       .  S
C359        H365   1.085       .  S
C362        H366   1.108       .  S
C362        H367   1.111       .  S
C362        H368   1.110   1_554  S
C369        C370   1.400       .  A
C369        C374   1.402       .  A
C369        H376   1.081       .  S
C370        C371   1.433       .  A
C371        C378   1.509       .  S
C371        C372   1.416       .  A
C372        C373   1.416       .  A
C372        H377   1.084       .  S
C373        C374   1.425       .  A
C374        C375   1.502       .  S
C375        H379   1.111       .  S
C375        H380   1.093       .  S
C375        H381   1.097       .  S
C378        H382   1.103       .  S
C378        H383   1.110       .  S
C378        H384   1.110       .  S
C385        C386   1.393       .  A
C385        C390   1.413       .  A
C385        H392   1.081       .  S
C386        C387   1.414       .  A
C387        C394   1.505       .  S
C387        C388   1.424       .  A
C388        C389   1.437       .  A
C388        H393   1.067       .  S
C389        C390   1.443       .  A
C390        C391   1.500       .  S
C391        H395   1.111       .  S
C391        H396   1.103       .  S
C391        H397   1.105       .  S
C394        H398   1.107       .  S
C394        H399   1.107       .  S
C394        H400   1.110       .  S
C401        C402   1.426       .  A
C401        C406   1.416       .  A
C401        H408   1.076       .  S
C402        C403   1.442       .  A
C403        C410   1.498       .  S
C403        C404   1.401       .  A
C404        C405   1.393       .  A
C404        H409   1.083       .  S
C405        C406   1.411       .  A
C406        C407   1.504       .  S
C407        H411   1.111       .  S
C407        H412   1.110       .  S
C407        H413   1.109       .  S
C410        H414   1.106       .  S
C410        H415   1.091       .  S
C410        H416   1.110       .  S
C417        C418   1.385       .  A
C417        C422   1.396       .  A
C417        H424   1.086       .  S
C418        C419   1.413       .  A
C419        C426   1.503       .  S
C419        C420   1.411       .  A
C420        C421   1.416       .  A
C420        H425   1.081       .  S
C421        C422   1.450       .  A
C422        C423   1.514       .  S
C423        H427   1.111       .  S
C423        H428   1.091       .  S
C423        H429   1.110       .  S
C426        H430   1.110       .  S
C426        H431   1.104       .  S
C426        H432   1.111       .  S
C433        C434   1.419       .  A
C433        C438   1.389       .  A
C433        H440   1.075       .  S
C434        C435   1.432       .  A
C435        C442   1.513       .  S
C435        C436   1.419       .  A
C436        C437   1.405       .  A
C436        H441   1.074       .  S
C437        C438   1.407       .  A
C438        C439   1.513       .  S
C439        H443   1.111       .  S
C439        H444   1.108       .  S
C439        H445   1.111       .  S
C442        H446   1.103       .  S
C442        H447   1.101       .  S
C442        H448   1.110       .  S
C449        C450   1.416       .  A
C449        C454   1.401       .  A
C449        H456   1.064       .  S
C450        C451   1.437       .  A
C451        C458   1.503       .  S
C451        C452   1.418       .  A
C452        C453   1.410       .  A
C452        H457   1.082       .  S
C453        C454   1.417       .  A
C454        C455   1.507       .  S
C455        H459   1.109       .  S
C455        H460   1.109       .  S
C455        H461   1.102       .  S
C458        H462   1.111       .  S
C458        H463   1.098       .  S
C458        H464   1.110       .  S
C465        C466   1.408       .  A
C465        C470   1.423       .  A
C465        H472   1.084       .  S
C466        C467   1.404       .  A
C467        C474   1.509       .  S
C467        C468   1.411       .  A
C468        C469   1.432       .  A
C468        H473   1.077       .  S
C469        C470   1.434       .  A
C470        C471   1.509       .  S
C471        H475   1.111       .  S
C471        H476   1.106       .  S
C471        H477   1.104       .  S
C474        H478   1.111       .  S
C474        H479   1.110       .  S
C474        H480   1.111       .  S
C481        C482   1.400       .  A
C481        C486   1.402       .  A
C481        H488   1.087       .  S
C482        C483   1.422       .  A
C483        C490   1.504       .  S
C483        C484   1.427       .  A
C484        C485   1.424       .  A
C484        H489   1.080       .  S
C485        C486   1.449       .  A
C486        C487   1.515       .  S
C487        H491   1.111       .  S
C487        H492   1.111       .  S
C487        H493   1.085       .  S
C490        H495   1.104       .  S
C490       H1214   1.110   1_554  S
C490       H1216   1.110       .  S
H494       C1210   1.110       .  S
H496       C1210   1.111       .  S
C497        C498   1.417       .  A
C497        C502   1.417       .  A
C497        H504   1.083       .  S
C498        C499   1.438       .  A
C499        C506   1.505       .  S
C499        C500   1.419       .  A
C500        C501   1.405       .  A
C500        H505   1.083       .  S
C501        C502   1.422       .  A
C502        C503   1.506       .  S
C503        H507   1.109       .  S
C503        H508   1.110       .  S
C503        H509   1.110       .  S
C506        H510   1.109       .  S
C506        H511   1.105       .  S
C506        H512   1.111       .  S
C513        C514   1.420       .  A
C513        C518   1.425       .  A
C513        H520   1.080       .  S
C514        C515   1.406       .  A
C515        C522   1.515       .  S
C515        C516   1.393       .  A
C516        C517   1.423       .  A
C516        H521   1.069       .  S
C517        C518   1.429       .  A
C518        C519   1.509       .  S
C519        H523   1.111       .  S
C519        H524   1.106       .  S
C519        H525   1.103       .  S
C522        H526   1.103       .  S
C522        H527   1.108       .  S
C522        H528   1.111       .  S
C529        C530   1.413       .  A
C529        C534   1.380       .  A
C529        H536   1.079       .  S
C530        C531   1.428       .  A
C531        C538   1.504       .  S
C531        C532   1.408       .  A
C532        C533   1.404       .  A
C532        H537   1.083       .  S
C533        C534   1.412       .  A
C534        C535   1.499       .  S
C535        H539   1.111       .  S
C535        H540   1.108       .  S
C535        H541   1.107       .  S
C538        H542   1.111       .  S
C538        H543   1.108       .  S
C538        H544   1.099       .  S
C545        C546   1.391       .  A
C545        C550   1.394       .  A
C545        H552   1.084       .  S
C546        C547   1.395       .  A
C547        C554   1.510       .  S
C547        C548   1.387       .  A
C548        C549   1.421       .  A
C548        H553   1.067       .  S
C549        C550   1.445       .  A
C550        C551   1.513       .  S
C551        H555   1.111       .  S
C551        H556   1.092       .  S
C551        H557   1.111       .  S
C554        H558   1.107       .  S
C554        H559   1.110       .  S
C554        H560   1.110       .  S
C561        C562   1.415       .  A
C561        C566   1.415       .  A
C561        H568   1.078       .  S
C562        C563   1.441       .  A
C563        C570   1.509       .  S
C563        C564   1.423       .  A
C564        C565   1.405       .  A
C564        H569   1.084       .  S
C565        C566   1.415       .  A
C566        C567   1.507       .  S
C567        H571   1.111       .  S
C567        H573   1.108       .  S
C567       H2012   1.111       .  S
C570        H574   1.104       .  S
C570        H575   1.108       .  S
C570        H576   1.111       .  S
H572       C2007   1.111       .  S
C577        C578   1.405       .  A
C577        C582   1.416       .  A
C577        H584   1.083       .  S
C578        C579   1.402       .  A
C579        C586   1.512       .  S
C579        C580   1.397       .  A
C580        C581   1.430       .  A
C580        H585   1.067       .  S
C581        C582   1.440       .  A
C582        C583   1.505       .  S
C583        H587   1.110       .  S
C583        H588   1.111       .  S
C583        H589   1.092       .  S
C586        H590   1.108       .  S
C586        H591   1.108       .  S
C586        H592   1.111       .  S
C593        C594   1.420       .  A
C593        C598   1.428       .  A
C593        H600   1.082       .  S
C594        C595   1.419       .  A
C595        C602   1.512       .  S
C595        C596   1.394       .  A
C596        C597   1.416       .  A
C596        H601   1.079       .  S
C597        C598   1.433       .  A
C598        C599   1.506       .  S
C599        H603   1.111       .  S
C599        H604   1.110       .  S
C599        H605   1.101       .  S
C602        H606   1.103       .  S
C602        H607   1.111       .  S
C602        H608   1.111       .  S
C609        C610   1.399       .  A
C609        C614   1.413       .  A
C609        H616   1.084       .  S
C610        C611   1.398       .  A
C611        C618   1.510       .  S
C611        C612   1.388       .  A
C612        C613   1.425       .  A
C612        H617   1.078       .  S
C613        C614   1.437       .  A
C614        C615   1.509       .  S
C615        H619   1.110       .  S
C615        H620   1.099       .  S
C615        H621   1.111       .  S
C618        H622   1.110       .  S
C618        H623   1.110       .  S
C618        H624   1.111       .  S
C625        C626   1.386       .  A
C625        C630   1.391       .  A
C625        H632   1.086       .  S
C626        C627   1.404       .  A
C627        C634   1.503       .  S
C627        C628   1.413       .  A
C628        C629   1.423       .  A
C628        H633   1.079       .  S
C629        C630   1.445       .  A
C630        C631   1.517       .  S
C631        H635   1.093       .  S
C631        H636   1.112       .  S
C631        H637   1.111       .  S
C634        H638   1.111       .  S
C634        H639   1.110       .  S
C634        H640   1.110       .  S
C641        C642   1.415       .  A
C641        C646   1.383       .  A
C641        H648   1.077       .  S
C642        C643   1.448       .  A
C643        C650   1.508       .  S
C643        C644   1.429       .  A
C644        C645   1.404       .  A
C644        H649   1.080       .  S
C645        C646   1.427       .  A
C646        C647   1.527       .  S
C647        H651   1.111       .  S
C647        H652   1.105       .  S
C647        H653   1.106       .  S
C650        H654   1.106       .  S
C650        H655   1.103       .  S
C650        H656   1.111       .  S
C657        C658   1.426       .  A
C657        C662   1.410       .  A
C657        H664   1.077       .  S
C658        C659   1.446       .  A
C659        C666   1.502       .  S
C659        C660   1.418       .  A
C660        C661   1.395       .  A
C660        H665   1.084       .  S
C661        C662   1.403       .  A
C662        C663   1.497       .  S
C663        H667   1.110       .  S
C663        H668   1.111       .  S
C663       H2109   1.106   1_554  S
C666        H670   1.102       .  S
C666        H671   1.101       .  S
C666        H672   1.111       .  S
H669       C2103   1.106   1_556  S
C673        C674   1.405       .  A
C673        C678   1.409       .  A
C673        H680   1.081       .  S
C674        C675   1.425       .  A
C675        C682   1.500       .  S
C675        C676   1.410       .  A
C676        C677   1.413       .  A
C676        H681   1.064       .  S
C677        C678   1.440       .  A
C678        C679   1.505       .  S
C679        H683   1.111       .  S
C679        H684   1.094       .  S
C679        H685   1.111       .  S
C682        H686   1.109       .  S
C682        H687   1.108       .  S
C682        H688   1.102       .  S
C689        C690   1.413       .  A
C689        C694   1.425       .  A
C689        H696   1.077       .  S
C690        C691   1.419       .  A
C691        C698   1.519       .  S
C691        C692   1.395       .  A
C692        C693   1.424       .  A
C692        H697   1.083       .  S
C693        C694   1.438       .  A
C694        C695   1.508       .  S
C695        H699   1.111       .  S
C695        H700   1.093       .  S
C695        H701   1.111       .  S
C698        H702   1.106       .  S
C698        H703   1.106       .  S
C698        H704   1.111       .  S
C705        C706   1.407       .  A
C705        C710   1.393       .  A
C705        H712   1.067       .  S
C706        C707   1.435       .  A
C707        C714   1.506       .  S
C707        C708   1.429       .  A
C708        C709   1.418       .  A
C708        H713   1.084       .  S
C709        C710   1.430       .  A
C710        C711   1.511       .  S
C711        H715   1.110       .  S
C711        H716   1.104       .  S
C711        H717   1.090       .  S
C714        H718   1.100       .  S
C714        H719   1.110       .  S
C714        H720   1.111       .  S
C721       C1378   1.605       .  S
C721       C1397   1.603       .  S
C721       C1413   1.595       .  S
C721       C1429   1.607       .  S
C722        C724   1.544       .  S
C722        C726   1.562       .  S
C722        C725   1.552       .  S
C722       C1426   1.577       .  S
C723        C727   1.507       .  S
C723        C729   1.511       .  S
C723        C728   1.559       .  S
C723       C1365   1.552       .  S
C724        C732   1.388       .  A
C724        C727   1.390       .  A
C725        C736   1.371       .  A
C725        C728   1.426       .  A
C726        C740   1.400       .  A
C726        C729   1.399       .  A
C727        C730   1.368       .  A
C728        C734   1.378       .  A
C729        C737   1.372       .  A
C730        N731   1.343       .  A
C730        H743   1.083       .  S
N731        C732   1.353       .  A
N731       C1346   1.427       .  S
C732        H733   1.073       .  S
C734        N735   1.360   1_455  A
C734        H744   1.080       .  S
N735        C736   1.357   1_655  A
N735        N784   1.407       .  S
C736        H742   1.082       .  S
C737        N738   1.338       .  A
C737        H739   1.083       .  S
N738        C740   1.353       .  A
N738       C1330   1.427       .  S
C740        H741   1.081       .  S
C745       C1282   1.591       .  S
C745       C1301   1.605       .  S
C745       C1314   1.592       .  S
C745       C1362   1.606       .  S
C746        C748   1.520       .  S
C746        C750   1.519       .  S
C746        C749   1.548       .  S
C746       C1410   1.555       .  S
C747        C751   1.545       .  S
C747        C753   1.512       .  S
C747        C752   1.530       .  S
C747       C1234   1.552       .  S
C748        C756   1.365       .  A
C748        C751   1.406       .  A
C749        C760   1.385       .  A
C749        C752   1.437       .  A
C750        C764   1.367       .  A
C750        C753   1.389       .  A
C751        C754   1.383       .  A
C752        C758   1.366       .  A
C753        C761   1.367       .  A
C754        N755   1.357       .  A
C754        H767   1.082       .  S
N755        C756   1.346       .  A
N755       C1253   1.439       .  S
C756        H757   1.078       .  S
C758       N2199   1.333       .  A
C758       H2208   1.082       .  S
N759       C2198   1.330       .  A
N759       C2200   1.338       .  A
N759       N2249   1.379       .  S
C760       N2199   1.340       .  A
C760       H2206   1.080       .  S
C761        N762   1.351       .  A
C761        H763   1.082       .  S
N762        C764   1.350       .  A
N762       C1266   1.426       .  S
C764        H765   1.082       .  S
H766       C2200   1.079       .  S
H768       C2198   1.081       .  S
C769       C1189   1.596       .  S
C769       C1205   1.602       .  S
C769       C1218   1.592       .  S
C769       C1269   1.575       .  S
C770       C1154   1.563       .  S
C770       C1170   1.597       .  S
C770       C1250   1.588       .  S
C770       C1333   1.584       .  S
C771        C773   1.550       .  S
C771        C775   1.550       .  S
C771        C774   1.541       .  S
C771       C1221   1.567       .  S
C772        C776   1.555       .  S
C772        C778   1.536       .  S
C772        C777   1.536       .  S
C772       C1106   1.571       .  S
C773        C781   1.394       .  A
C773        C776   1.401       .  A
C774        C785   1.373       .  A
C774        C777   1.409       .  A
C775        C789   1.375       .  A
C775        C778   1.401       .  A
C776        C779   1.372       .  A
C777        C783   1.375       .  A
C778        C786   1.379       .  A
C779        N780   1.352       .  A
C779        H792   1.076       .  S
N780        C781   1.359       .  A
N780       C1125   1.449       .  S
C781        H782   1.077       .  S
C783        N784   1.358       .  A
C783        H793   1.082       .  S
N784        C785   1.359       .  A
C785        H791   1.082       .  S
C786        N787   1.352       .  A
C786        H788   1.072       .  S
N787        C789   1.353       .  A
N787       C1138   1.437       .  S
C789        H790   1.076       .  S
C794       C1058   1.593       .  S
C794       C1077   1.563       .  S
C794       C1093   1.593       .  S
C794       C1141   1.577       .  S
C795       C1029   1.590       .  S
C795       C1042   1.570       .  S
C795       C1122   1.583       .  S
C795       C1237   1.590       .  S
C796        C798   1.545       .  S
C796        C800   1.545       .  S
C796        C799   1.529       .  S
C796       C1317   1.574       .  S
C797        C801   1.543       .  S
C797        C803   1.534       .  S
C797        C802   1.530       .  S
C797       C1090   1.565       .  S
C798        C806   1.381       .  A
C798        C801   1.402       .  A
C799       C2250   1.376       .  A
C799        C802   1.426       .  A
C800        C814   1.390       .  A
C800        C803   1.401       .  A
C801        C804   1.395       .  A
C802       C2248   1.358       .  A
C803        C811   1.371       .  A
C804        N805   1.351       .  A
C804        H817   1.077       .  S
N805        C806   1.346       .  A
N805       C1010   1.445       .  S
C806        H807   1.082       .  S
C808       C2242   1.356       .  A
C808        N809   1.333       .  A
C808        H818   1.082       .  S
N809        C810   1.346       .  A
N809       N2199   1.382   1_565  S
C810       C2239   1.380       .  A
C810        H816   1.082       .  S
C811        N812   1.360       .  A
C811        H813   1.066       .  S
N812        C814   1.367       .  A
N812        C994   1.474       .  S
C814        H815   1.076       .  S
C819        C962   1.581       .  S
C819        C981   1.585       .  S
C819       C1013   1.574       .  S
C819       C1349   1.565       .  S
C820        C930   1.628       .  S
C820        C946   1.602       .  S
C820        C997   1.612       .  S
C820       C1109   1.642       .  S
C821        C823   1.524       .  S
C821        C825   1.549       .  S
C821        C824   1.545       .  S
C821       C1202   1.569       .  S
C822        C826   1.552       .  S
C822        C828   1.542       .  S
C822        C827   1.519       .  S
C822        C978   1.565       .  S
C823        C831   1.374       .  A
C823        C826   1.403       .  A
C824        C827   1.426       .  A
C825        C839   1.389       .  A
C825        C828   1.403       .  A
C826        C829   1.384       .  A
C828        C836   1.376       .  A
C829        N830   1.353       .  A
C829        H842   1.059       .  S
N830        C831   1.344       .  A
N830       C1074   1.443       .  S
C831        H832   1.082       .  S
C833        N834   1.327       .  A
C833        H843   1.082       .  S
N834        C835   1.346       .  A
N834        N857   1.377       .  S
C835        H841   1.078       .  S
C836        N837   1.357       .  A
C836        H838   1.061       .  S
N837        C839   1.367       .  A
N837       C1394   1.474       .  S
C839        H840   1.080       .  S
C844        C846   1.531       .  S
C844        C848   1.546       .  S
C844        C847   1.547       .  S
C844        C949   1.567       .  S
C845        C849   1.527       .  S
C845        C851   1.533       .  S
C845        C850   1.530       .  S
C845       C1173   1.558       .  S
C846        C854   1.386       .  A
C846        C849   1.392       .  A
C847        C858   1.376       .  A
C847        C850   1.436       .  A
C848        C862   1.383       .  A
C848        C851   1.412       .  A
C849        C852   1.375       .  A
C850        C856   1.358       .  A
C851        C859   1.392       .  A
C852        N853   1.352       .  A
C852        H865   1.081       .  S
N853        C854   1.359       .  A
N853       C1045   1.450       .  S
C854        H855   1.078       .  S
C856        N857   1.333       .  A
C856        H866   1.082       .  S
N857        C858   1.336       .  A
C858        H864   1.078       .  S
C859        N860   1.355       .  A
C859        H861   1.082       .  S
N860        C862   1.353       .  A
N860       C1298   1.456       .  S
C862        H863   1.083       .  S
O867       Zr879   2.459   1_455  S
O867        C869   1.290       .  A
O868      Zr2345   2.476   1_544  S
C869       C1381   1.504       .  S
O870        C872   1.283       .  A
O871      Zr2346   2.516   1_554  S
C872       C1061   1.525       .  S
O873        C875   1.283       .  A
O874       Zr905   2.481       .  S
C875        C965   1.503       .  S
O876       Zr879   2.430       .  S
O876        C878   1.286       .  A
O877       Zr906   2.503   1_554  S
C878       C1186   1.498       .  S
Zr879       O880   2.436       .  S
Zr879       O881   2.438       .  S
Zr879      O2325   2.370   1_655  S
Zr879       O886   2.363       .  S
O880        H923   0.990       .  S
O881        H926   0.990       .  S
Zr882       O884   2.433       .  S
Zr882      O1606   2.368       .  S
Zr882       O910   2.375   1_654  S
Zr882       O912   2.368   1_554  S
O883        H924   0.990       .  S
O883        H927   0.990       .  S
O884        H917   0.990   1_554  S
O885      Zr2319   2.370   1_455  S
O886      Zr1602   2.368   1_545  S
O886       H2353   0.966       .  S
O887       Zr899   2.434       .  S
O887        C889   1.289       .  A
O888       Zr906   2.498       .  S
O888        C889   1.301       .  A
C889       C1026   1.518       .  S
O890       Zr902   2.474   1_455  S
O890        C892   1.295       .  A
O891       Zr905   2.473       .  S
O891        C892   1.296       .  A
C892       C1285   1.512       .  S
O893       Zr902   2.448       .  S
O893        C895   1.289       .  A
O894      Zr2346   2.498       .  S
O894        C895   1.302       .  A
C895        C933   1.507       .  S
O896       Zr899   2.435   1_455  S
O896        C898   1.287       .  A
O897      Zr2345   2.451   1_545  S
O897        C898   1.292       .  A
C898       C1157   1.491       .  S
Zr899       O900   2.436       .  S
Zr899       O901   2.434       .  S
Zr899       O907   2.370   1_545  S
Zr899       O908   2.362   1_645  S
Zr899       O911   2.375   1_655  S
Zr899       O909   2.367       .  S
O900        H920   0.990       .  S
O900        H925   0.990       .  S
O901        H921   0.990       .  S
Zr902       O903   2.433       .  S
Zr902       O904   2.436       .  S
Zr902      O2348   2.372   1_655  S
Zr902      O2347   2.367       .  S
Zr902       O912   2.389       .  S
Zr902       O910   2.357   1_655  S
O903        H919   0.990       .  S
O904        H918   0.990       .  S
O904        H928   0.990       .  S
Zr905      O2308   2.480   1_556  S
Zr905      O2337   2.462       .  S
Zr905      O2348   2.404       .  S
Zr905       O910   2.398       .  S
Zr905      O2351   2.401       .  S
Zr906      O2311   2.515   1_546  S
Zr906      O2334   2.488   1_545  S
Zr906       O907   2.410   1_545  S
Zr906       O909   2.403       .  S
Zr906      O2352   2.404   1_545  S
O907      Zr2342   2.368       .  S
O907        H915   0.964       .  S
O908      Zr2342   2.371   1_455  S
O908      Zr2345   2.397       .  S
O910        H914   0.966       .  S
O911      Zr2345   2.401   1_545  S
O911        H916   0.963       .  S
O912      Zr2346   2.404       .  S
H913       O2326   0.966       .  S
C929        C930   1.423       .  A
C929        C934   1.412       .  A
C929        H936   1.078       .  S
C930        C931   1.456       .  A
C931        C938   1.506       .  S
C931        C932   1.426       .  A
C932        C933   1.397       .  A
C932        H937   1.085       .  S
C933        C934   1.408       .  A
C934        C935   1.508       .  S
C935        H939   1.111       .  S
C935        H940   1.108       .  S
C935        H941   1.109       .  S
C938        H942   1.110       .  S
C938        H943   1.088       .  S
C938        H944   1.111       .  S
C945        C946   1.424       .  A
C945        C950   1.406       .  A
C945        H952   1.083       .  S
C946        C947   1.436       .  A
C947        C954   1.507       .  S
C947        C948   1.422       .  A
C948        C949   1.413       .  A
C948        H953   1.077       .  S
C949        C950   1.422       .  A
C950        C951   1.511       .  S
C951        H955   1.108       .  S
C951        H956   1.109       .  S
C951        H957   1.111       .  S
C954        H958   1.108       .  S
C954        H959   1.104       .  S
C954        H960   1.110       .  S
C961        C962   1.410       .  A
C961        C966   1.398       .  A
C961        H968   1.064       .  S
C962        C963   1.443       .  A
C963        C970   1.509       .  S
C963        C964   1.421       .  A
C964        C965   1.402       .  A
C965        C966   1.416       .  A
C966        C967   1.513       .  S
C967        H971   1.111       .  S
C967        H972   1.108       .  S
C967        H973   1.110       .  S
C970        H974   1.107       .  S
C970        H975   1.104       .  S
C977        C978   1.407       .  A
C977        C982   1.409       .  A
C977        H984   1.084       .  S
C978        C979   1.411       .  A
C979        C986   1.510       .  S
C979        C980   1.401       .  A
C980        C981   1.421       .  A
C980        H985   1.069       .  S
C981        C982   1.440       .  A
C982        C983   1.506       .  S
C983        H987   1.110       .  S
C983        H988   1.103       .  S
C983        H989   1.110       .  S
C986        H991   1.106       .  S
C986        H992   1.110       .  S
C993        C994   1.406       .  A
C993        C998   1.414       .  A
C993       H1000   1.077       .  S
C994        C995   1.420       .  A
C995       C1002   1.502       .  S
C995        C996   1.402       .  A
C996        C997   1.415       .  A
C996       H1001   1.061       .  S
C997        C998   1.439       .  A
C998        C999   1.499       .  S
C999       H1003   1.111       .  S
C999       H1004   1.104       .  S
C999       H1005   1.104       .  S
C1002      H1006   1.106       .  S
C1002      H1007   1.108       .  S
C1002      H1008   1.109       .  S
C1009      C1010   1.393       .  A
C1009      C1014   1.392       .  A
C1009      H1016   1.082       .  S
C1010      C1011   1.407       .  A
C1011      C1018   1.501       .  S
C1011      C1012   1.407       .  A
C1012      C1013   1.414       .  A
C1012      H1017   1.080       .  S
C1013      C1014   1.450       .  A
C1014      C1015   1.520       .  S
C1015      H1019   1.087       .  S
C1015      H1020   1.112       .  S
C1015      H1021   1.111       .  S
C1018      H1022   1.110       .  S
C1018      H1023   1.111       .  S
C1018      H1024   1.110       .  S
C1025      C1026   1.404       .  A
C1025      C1030   1.410       .  A
C1025      H1032   1.083       .  S
C1026      C1027   1.414       .  A
C1027      C1034   1.505       .  S
C1027      C1028   1.422       .  A
C1028      C1029   1.423       .  A
C1028      H1033   1.073       .  S
C1029      C1030   1.446       .  A
C1030      C1031   1.520       .  S
C1031      H1035   1.111       .  S
C1031      H1036   1.104       .  S
C1031      H1037   1.106       .  S
C1034      H1038   1.110       .  S
C1034      H2479   1.108   1_545  S
C1034      H2480   1.111       .  S
H1039      C2474   1.109       .  S
H1040      C2474   1.111       .  S
C1041      C1042   1.419       .  A
C1041      C1046   1.406       .  A
C1041      H1048   1.074       .  S
C1042      C1043   1.446       .  A
C1043      C1050   1.515       .  S
C1043      C1044   1.401       .  A
C1044      C1045   1.397       .  A
C1044      H1049   1.083       .  S
C1045      C1046   1.403       .  A
C1046      C1047   1.504       .  S
C1047      H1051   1.111       .  S
C1047      H1052   1.111       .  S
C1047      H1053   1.106       .  S
C1050      H1054   1.093       .  S
C1050      H1055   1.111       .  S
C1050      H1056   1.111       .  S
C1057      C1058   1.410       .  A
C1057      C1062   1.405       .  A
C1057      H1064   1.064       .  S
C1058      C1059   1.439       .  A
C1059      C1066   1.506       .  S
C1059      C1060   1.428       .  A
C1060      C1061   1.408       .  A
C1060      H1065   1.083       .  S
C1061      C1062   1.426       .  A
C1062      C1063   1.514       .  S
C1063      H1067   1.111       .  S
C1063      H1068   1.109       .  S
C1063      H1069   1.110       .  S
C1066      H1070   1.109       .  S
C1066      H1071   1.097       .  S
C1066      H1072   1.111       .  S
C1073      C1074   1.389       .  A
C1073      C1078   1.394       .  A
C1073      H1080   1.083       .  S
C1074      C1075   1.405       .  A
C1075      C1082   1.501       .  S
C1075      C1076   1.407       .  A
C1076      C1077   1.409       .  A
C1076      H1081   1.077       .  S
C1077      C1078   1.452       .  A
C1078      C1079   1.515       .  S
C1079      H1083   1.111       .  S
C1079      H1084   1.111       .  S
C1079      H1085   1.085       .  S
C1082      H1086   1.108       .  S
C1082      H1087   1.111       .  S
C1082      H1088   1.110       .  S
C1089      C1090   1.399       .  A
C1089      C1094   1.404       .  A
C1089      H1096   1.081       .  S
C1090      C1091   1.432       .  A
C1091      C1098   1.508       .  S
C1091      C1092   1.419       .  A
C1092      C1093   1.418       .  A
C1092      H1097   1.084       .  S
C1093      C1094   1.428       .  A
C1094      C1095   1.501       .  S
C1095      H1099   1.112       .  S
C1095      H1100   1.085       .  S
C1095      H1101   1.103       .  S
C1098      H1102   1.104       .  S
C1098      H1103   1.110       .  S
C1098      H1104   1.110       .  S
C1105      C1106   1.393       .  A
C1105      C1110   1.415       .  A
C1105      H1112   1.080       .  S
C1106      C1107   1.414       .  A
C1107      C1114   1.504       .  S
C1107      C1108   1.425       .  A
C1108      C1109   1.438       .  A
C1108      H1113   1.066       .  S
C1109      C1110   1.447       .  A
C1110      C1111   1.502       .  S
C1111      H1115   1.111       .  S
C1111      H1116   1.102       .  S
C1111      H1117   1.104       .  S
C1114      H1118   1.107       .  S
C1114      H1119   1.108       .  S
C1114      H1120   1.110       .  S
C1121      C1122   1.425       .  A
C1121      C1126   1.413       .  A
C1121      H1128   1.079       .  S
C1122      C1123   1.440       .  A
C1123      C1130   1.500       .  S
C1123      C1124   1.398       .  A
C1124      C1125   1.391       .  A
C1124      H1129   1.084       .  S
C1125      C1126   1.410       .  A
C1126      C1127   1.504       .  S
C1127      H1131   1.111       .  S
C1127      H1132   1.110       .  S
C1127      H1133   1.109       .  S
C1130      H1134   1.107       .  S
C1130      H1135   1.090       .  S
C1130      H1136   1.110       .  S
C1137      C1138   1.384       .  A
C1137      C1142   1.395       .  A
C1137      H1144   1.086       .  S
C1138      C1139   1.411       .  A
C1139      C1146   1.502       .  S
C1139      C1140   1.409       .  A
C1140      C1141   1.416       .  A
C1140      H1145   1.081       .  S
C1141      C1142   1.449       .  A
C1142      C1143   1.514       .  S
C1143      H1147   1.111       .  S
C1143      H1148   1.090       .  S
C1143      H1149   1.110       .  S
C1146      H1150   1.111       .  S
C1146      H1151   1.105       .  S
C1146      H1152   1.111       .  S
C1153      C1154   1.420       .  A
C1153      C1158   1.390       .  A
C1153      H1160   1.076       .  S
C1154      C1155   1.432       .  A
C1155      C1162   1.512       .  S
C1155      C1156   1.418       .  A
C1156      C1157   1.404       .  A
C1156      H1161   1.072       .  S
C1157      C1158   1.405       .  A
C1158      C1159   1.513       .  S
C1159      H1163   1.111       .  S
C1159      H1164   1.108       .  S
C1159      H1165   1.111       .  S
C1162      H1166   1.103       .  S
C1162      H1167   1.103       .  S
C1162      H1168   1.110       .  S
C1169      C1170   1.416       .  A
C1169      C1174   1.401       .  A
C1169      H1176   1.064       .  S
C1170      C1171   1.438       .  A
C1171      C1178   1.503       .  S
C1171      C1172   1.418       .  A
C1172      C1173   1.410       .  A
C1172      H1177   1.082       .  S
C1173      C1174   1.418       .  A
C1174      C1175   1.506       .  S
C1175      H1179   1.109       .  S
C1175      H1180   1.110       .  S
C1175      H1181   1.101       .  S
C1178      H1182   1.110       .  S
C1178      H1183   1.099       .  S
C1178      H1184   1.111       .  S
C1185      C1186   1.405       .  A
C1185      C1190   1.420       .  A
C1185      H1192   1.084       .  S
C1186      C1187   1.404       .  A
C1187      C1194   1.509       .  S
C1187      C1188   1.410       .  A
C1188      C1189   1.431       .  A
C1188      H1193   1.077       .  S
C1189      C1190   1.434       .  A
C1190      C1191   1.509       .  S
C1191      H1195   1.111       .  S
C1191      H1196   1.105       .  S
C1191      H1197   1.104       .  S
C1194      H1198   1.111       .  S
C1194      H1199   1.110       .  S
C1194      H1200   1.111       .  S
C1201      C1202   1.401       .  A
C1201      C1206   1.402       .  A
C1201      H1208   1.086       .  S
C1202      C1203   1.422       .  A
C1203      C1210   1.503       .  S
C1203      C1204   1.429       .  A
C1204      C1205   1.426       .  A
C1204      H1209   1.080       .  S
C1205      C1206   1.447       .  A
C1206      C1207   1.514       .  S
C1207      H1211   1.111       .  S
C1207      H1212   1.111       .  S
C1207      H1213   1.085       .  S
C1210      H1215   1.104       .  S
C1217      C1218   1.417       .  A
C1217      C1222   1.417       .  A
C1217      H1224   1.082       .  S
C1218      C1219   1.439       .  A
C1219      C1226   1.506       .  S
C1219      C1220   1.418       .  A
C1220      C1221   1.403       .  A
C1220      H1225   1.083       .  S
C1221      C1222   1.420       .  A
C1222      C1223   1.506       .  S
C1223      H1227   1.109       .  S
C1223      H1228   1.110       .  S
C1223      H1229   1.110       .  S
C1226      H1230   1.109       .  S
C1226      H1231   1.105       .  S
C1226      H1232   1.111       .  S
C1233      C1234   1.418       .  A
C1233      C1238   1.425       .  A
C1233      H1240   1.082       .  S
C1234      C1235   1.405       .  A
C1235      C1242   1.514       .  S
C1235      C1236   1.395       .  A
C1236      C1237   1.425       .  A
C1236      H1241   1.067       .  S
C1237      C1238   1.434       .  A
C1238      C1239   1.506       .  S
C1239      H1243   1.111       .  S
C1239      H1244   1.110       .  S
C1239      H1245   1.095       .  S
C1242      H1246   1.103       .  S
C1242      H1247   1.108       .  S
C1242      H1248   1.111       .  S
C1249      C1250   1.412       .  A
C1249      C1254   1.380       .  A
C1249      H1256   1.079       .  S
C1250      C1251   1.426       .  A
C1251      C1258   1.505       .  S
C1251      C1252   1.409       .  A
C1252      C1253   1.406       .  A
C1252      H1257   1.083       .  S
C1253      C1254   1.414       .  A
C1254      C1255   1.500       .  S
C1255      H1259   1.111       .  S
C1255      H1260   1.108       .  S
C1255      H1261   1.108       .  S
C1258      H1262   1.111       .  S
C1258      H1263   1.109       .  S
C1258      H1264   1.100       .  S
C1265      C1266   1.391       .  A
C1265      C1270   1.394       .  A
C1265      H1272   1.084       .  S
C1266      C1267   1.397       .  A
C1267      C1274   1.510       .  S
C1267      C1268   1.389       .  A
C1268      C1269   1.422       .  A
C1268      H1273   1.068       .  S
C1269      C1270   1.445       .  A
C1270      C1271   1.514       .  S
C1271      H1275   1.111       .  S
C1271      H1276   1.092       .  S
C1271      H1277   1.111       .  S
C1274      H1278   1.107       .  S
C1274      H1279   1.109       .  S
C1274      H1280   1.111       .  S
C1281      C1282   1.415       .  A
C1281      C1286   1.413       .  A
C1281      H1288   1.077       .  S
C1282      C1283   1.442       .  A
C1283      C1290   1.510       .  S
C1283      C1284   1.425       .  A
C1284      C1285   1.405       .  A
C1284      H1289   1.084       .  S
C1285      C1286   1.413       .  A
C1286      C1287   1.507       .  S
C1287      H1291   1.111       .  S
C1287      H2732   1.111       .  S
C1287      H1293   1.108       .  S
C1290      H1294   1.107       .  S
C1290      H1295   1.103       .  S
C1290      H1296   1.111       .  S
H1292      C2727   1.111       .  S
C1297      C1298   1.405       .  A
C1297      C1302   1.416       .  A
C1297      H1304   1.082       .  S
C1298      C1299   1.406       .  A
C1299      C1306   1.512       .  S
C1299      C1300   1.401       .  A
C1300      C1301   1.429       .  A
C1300      H1305   1.067       .  S
C1301      C1302   1.440       .  A
C1302      C1303   1.506       .  S
C1303      H1307   1.111       .  S
C1303      H1308   1.111       .  S
C1303      H1309   1.094       .  S
C1306      H1310   1.107       .  S
C1306      H1311   1.109       .  S
C1306      H1312   1.111       .  S
C1313      C1314   1.420       .  A
C1313      C1318   1.429       .  A
C1313      H1320   1.081       .  S
C1314      C1315   1.416       .  A
C1315      C1322   1.512       .  S
C1315      C1316   1.393       .  A
C1316      C1317   1.417       .  A
C1316      H1321   1.078       .  S
C1317      C1318   1.434       .  A
C1318      C1319   1.506       .  S
C1319      H1323   1.111       .  S
C1319      H1324   1.110       .  S
C1319      H1325   1.101       .  S
C1322      H1326   1.103       .  S
C1322      H1327   1.110       .  S
C1322      H1328   1.111       .  S
C1329      C1330   1.400       .  A
C1329      C1334   1.413       .  A
C1329      H1336   1.084       .  S
C1330      C1331   1.397       .  A
C1331      C1338   1.510       .  S
C1331      C1332   1.385       .  A
C1332      C1333   1.425       .  A
C1332      H1337   1.079       .  S
C1333      C1334   1.436       .  A
C1334      C1335   1.509       .  S
C1335      H1339   1.111       .  S
C1335      H1340   1.100       .  S
C1335      H1341   1.111       .  S
C1338      H1342   1.110       .  S
C1338      H1343   1.110       .  S
C1338      H1344   1.111       .  S
C1345      C1346   1.384       .  A
C1345      C1350   1.388       .  A
C1345      H1352   1.086       .  S
C1346      C1347   1.403       .  A
C1347      C1354   1.503       .  S
C1347      C1348   1.410       .  A
C1348      C1349   1.422       .  A
C1348      H1353   1.079       .  S
C1349      C1350   1.445       .  A
C1350      C1351   1.517       .  S
C1351      H1355   1.094       .  S
C1351      H1356   1.112       .  S
C1351      H1357   1.111       .  S
C1354      H1358   1.111       .  S
C1354      H1359   1.110       .  S
C1354      H1360   1.111       .  S
C1361      C1362   1.416       .  A
C1361      C1366   1.387       .  A
C1361      H1368   1.078       .  S
C1362      C1363   1.448       .  A
C1363      C1370   1.508       .  S
C1363      C1364   1.431       .  A
C1364      C1365   1.406       .  A
C1364      H1369   1.079       .  S
C1365      C1366   1.427       .  A
C1366      C1367   1.525       .  S
C1367      H1371   1.111       .  S
C1367      H1372   1.105       .  S
C1367      H1373   1.106       .  S
C1370      H1374   1.106       .  S
C1370      H1375   1.103       .  S
C1370      H1376   1.111       .  S
C1377      C1378   1.429       .  A
C1377      C1382   1.412       .  A
C1377      H1384   1.077       .  S
C1378      C1379   1.446       .  A
C1379      C1386   1.502       .  S
C1379      C1380   1.420       .  A
C1380      C1381   1.397       .  A
C1380      H1385   1.084       .  S
C1381      C1382   1.404       .  A
C1382      C1383   1.499       .  S
C1383      H1387   1.111       .  S
C1383      H1388   1.111       .  S
C1383      H2829   1.106       .  S
C1386      H1390   1.103       .  S
C1386      H1391   1.101       .  S
C1386      H1392   1.111       .  S
H1389      C2823   1.106       .  S
C1393      C1394   1.406       .  A
C1393      C1398   1.406       .  A
C1393      H1400   1.080       .  S
C1394      C1395   1.429       .  A
C1395      C1402   1.502       .  S
C1395      C1396   1.410       .  A
C1396      C1397   1.411       .  A
C1396      H1401   1.065       .  S
C1397      C1398   1.438       .  A
C1398      C1399   1.506       .  S
C1399      H1403   1.111       .  S
C1399      H1404   1.095       .  S
C1399      H1405   1.111       .  S
C1402      H1406   1.109       .  S
C1402      H1407   1.107       .  S
C1402      H1408   1.107       .  S
C1409      C1410   1.414       .  A
C1409      C1414   1.424       .  A
C1409      H1416   1.077       .  S
C1410      C1411   1.418       .  A
C1411      C1418   1.518       .  S
C1411      C1412   1.395       .  A
C1412      C1413   1.427       .  A
C1412      H1417   1.083       .  S
C1413      C1414   1.437       .  A
C1414      C1415   1.508       .  S
C1415      H1419   1.111       .  S
C1415      H1420   1.093       .  S
C1415      H1421   1.111       .  S
C1418      H1422   1.106       .  S
C1418      H1423   1.107       .  S
C1418      H1424   1.111       .  S
C1425      C1426   1.407       .  A
C1425      C1430   1.395       .  A
C1425      H1432   1.069       .  S
C1426      C1427   1.436       .  A
C1427      C1434   1.506       .  S
C1427      C1428   1.430       .  A
C1428      C1429   1.417       .  A
C1428      H1433   1.084       .  S
C1429      C1430   1.432       .  A
C1430      C1431   1.511       .  S
C1431      H1435   1.110       .  S
C1431      H1436   1.104       .  S
C1431      H1437   1.091       .  S
C1434      H1438   1.101       .  S
C1434      H1439   1.110       .  S
C1434      H1440   1.111       .  S
C1441      C2098   1.603       .  S
C1441      C2117   1.604       .  S
C1441      C2133   1.593       .  S
C1441      C2149   1.603       .  S
C1442      C1444   1.545       .  S
C1442      C1446   1.565       .  S
C1442      C1445   1.547       .  S
C1442      C2146   1.569       .  S
C1443      C1447   1.506       .  S
C1443      C1449   1.509       .  S
C1443      C1448   1.556       .  S
C1443      C2085   1.545       .  S
C1444      C1452   1.389       .  A
C1444      C1447   1.388       .  A
C1445      C1456   1.369       .  A
C1445      C1448   1.423       .  A
C1446      C1460   1.401       .  A
C1446      C1449   1.397       .  A
C1447      C1450   1.365       .  A
C1448      C1454   1.377       .  A
C1449      C1457   1.370       .  A
C1450      N1451   1.342       .  A
C1450      H1463   1.083       .  S
N1451      C1452   1.354       .  A
N1451      C2066   1.427       .  S
C1452      H1453   1.073       .  S
C1454      N1455   1.360       .  A
C1454      H1464   1.080       .  S
N1455      C1456   1.356       .  A
N1455      N1504   1.405   1_455  S
C1456      H1462   1.082       .  S
C1457      N1458   1.337       .  A
C1457      H1459   1.083       .  S
N1458      C1460   1.355       .  A
N1458      C2050   1.428       .  S
C1460      H1461   1.081       .  S
C1465      C2002   1.586       .  S
C1465      C2021   1.602       .  S
C1465      C2034   1.587       .  S
C1465      C2082   1.602       .  S
C1466      C1468   1.522       .  S
C1466      C1470   1.525       .  S
C1466      C1469   1.547       .  S
C1466      C2130   1.554       .  S
C1467      C1471   1.541       .  S
C1467      C1473   1.510       .  S
C1467      C1472   1.525       .  S
C1467      C1954   1.548       .  S
C1468      C1476   1.367       .  A
C1468      C1471   1.404       .  A
C1469      C1480   1.386       .  A
C1469      C1472   1.436       .  A
C1470      C1484   1.369       .  A
C1470      C1473   1.390       .  A
C1471      C1474   1.380       .  A
C1472      C1478   1.362       .  A
C1473      C1481   1.367       .  A
C1474      N1475   1.355       .  A
C1474      H1487   1.082       .  S
N1475      C1476   1.348       .  A
N1475      C1973   1.438       .  S
C1476      H1477   1.078       .  S
C1481      N1482   1.350       .  A
C1481      H1483   1.082       .  S
N1482      C1484   1.353       .  A
N1482      C1986   1.429       .  S
C1484      H1485   1.082       .  S
C1489      C1909   1.595       .  S
C1489      C1925   1.601       .  S
C1489      C1938   1.590       .  S
C1489      C1989   1.575       .  S
C1490      C1874   1.567       .  S
C1490      C1890   1.600       .  S
C1490      C1970   1.589       .  S
C1490      C2053   1.585       .  S
C1491      C1493   1.550       .  S
C1491      C1495   1.549       .  S
C1491      C1494   1.539       .  S
C1491      C1941   1.564       .  S
C1492      C1496   1.557       .  S
C1492      C1498   1.533       .  S
C1492      C1497   1.535       .  S
C1492      C1826   1.571       .  S
C1493      C1501   1.394       .  A
C1493      C1496   1.401       .  A
C1494      C1505   1.372       .  A
C1494      C1497   1.409       .  A
C1495      C1509   1.376       .  A
C1495      C1498   1.399       .  A
C1496      C1499   1.373       .  A
C1497      C1503   1.373       .  A
C1498      C1506   1.376       .  A
C1499      N1500   1.352       .  A
C1499      H1512   1.075       .  S
N1500      C1501   1.358       .  A
N1500      C1845   1.448       .  S
C1501      H1502   1.077       .  S
C1503      N1504   1.357       .  A
C1503      H1513   1.082       .  S
N1504      C1505   1.358       .  A
C1505      H1511   1.082       .  S
C1506      N1507   1.351       .  A
C1506      H1508   1.068       .  S
N1507      C1509   1.353       .  A
N1507      C1858   1.437       .  S
C1509      H1510   1.075       .  S
C1514      C1778   1.591       .  S
C1514      C1797   1.563       .  S
C1514      C1813   1.593       .  S
C1514      C1861   1.574       .  S
C1515      C1749   1.591       .  S
C1515      C1762   1.564       .  S
C1515      C1842   1.583       .  S
C1515      C1957   1.587       .  S
C1516      C1518   1.541       .  S
C1516      C1520   1.545       .  S
C1516      C1519   1.530       .  S
C1516      C2037   1.570       .  S
C1517      C1521   1.543       .  S
C1517      C1523   1.533       .  S
C1517      C1522   1.530       .  S
C1517      C1810   1.564       .  S
C1518      C1526   1.380       .  A
C1518      C1521   1.399       .  A
C1519      C1522   1.426       .  A
C1520      C1534   1.388       .  A
C1520      C1523   1.403       .  A
C1521      C1524   1.394       .  A
C1523      C1531   1.370       .  A
C1524      N1525   1.352       .  A
C1524      H1537   1.078       .  S
N1525      C1526   1.345       .  A
N1525      C1730   1.444       .  S
C1526      H1527   1.082       .  S
C1528      N1529   1.332       .  A
C1528      H1538   1.083       .  S
N1529      C1530   1.343       .  A
C1530      H1536   1.082       .  S
C1531      N1532   1.360       .  A
C1531      H1533   1.065       .  S
N1532      C1534   1.366       .  A
N1532      C1714   1.474       .  S
C1534      H1535   1.075       .  S
C1539      C1682   1.576       .  S
C1539      C1701   1.580       .  S
C1539      C1733   1.571       .  S
C1539      C2069   1.564       .  S
C1540      C1650   1.625       .  S
C1540      C1666   1.596       .  S
C1540      C1717   1.610       .  S
C1540      C1829   1.644       .  S
C1541      C1543   1.523       .  S
C1541      C1545   1.547       .  S
C1541      C1544   1.545       .  S
C1541      C1922   1.570       .  S
C1542      C1546   1.552       .  S
C1542      C1548   1.544       .  S
C1542      C1547   1.517       .  S
C1542      C1698   1.564       .  S
C1543      C1551   1.374       .  A
C1543      C1546   1.404       .  A
C1544      C2275   1.385       .  A
C1544      C1547   1.426       .  A
C1545      C1559   1.388       .  A
C1545      C1548   1.405       .  A
C1546      C1549   1.386       .  A
C1547      C2273   1.350       .  A
C1548      C1556   1.380       .  A
C1549      N1550   1.351       .  A
C1549      H1562   1.058       .  S
N1550      C1551   1.343       .  A
N1550      C1794   1.443       .  S
C1551      H1552   1.082       .  S
C1553      C2267   1.351       .  A
C1553      N1554   1.326       .  A
C1553      H1563   1.082       .  S
N1554      C1555   1.347       .  A
N1554      N1577   1.378       .  S
C1555      C2264   1.385       .  A
C1555      H1561   1.078       .  S
C1556      N1557   1.359       .  A
C1556      H1558   1.061       .  S
N1557      C1559   1.365       .  A
N1557      C2114   1.475       .  S
C1559      H1560   1.080       .  S
C1564      C1566   1.522       .  S
C1564      C1568   1.539       .  S
C1564      C1567   1.548       .  S
C1564      C1669   1.564       .  S
C1565      C1569   1.536       .  S
C1565      C1571   1.534       .  S
C1565      C1570   1.527       .  S
C1565      C1893   1.563       .  S
C1566      C1574   1.379       .  A
C1566      C1569   1.395       .  A
C1567      C1578   1.378       .  A
C1567      C1570   1.436       .  A
C1568      C1582   1.378       .  A
C1568      C1571   1.412       .  A
C1569      C1572   1.380       .  A
C1570      C1576   1.357       .  A
C1571      C1579   1.390       .  A
C1572      N1573   1.356       .  A
C1572      H1585   1.081       .  S
N1573      C1574   1.354       .  A
N1573      C1765   1.450       .  S
C1574      H1575   1.077       .  S
C1576      N1577   1.332       .  A
C1576      H1586   1.082       .  S
N1577      C1578   1.337       .  A
C1578      H1584   1.078       .  S
C1579      N1580   1.354       .  A
C1579      H1581   1.082       .  S
N1580      C1582   1.351       .  A
N1580      C2018   1.448       .  S
C1582      H1583   1.083       .  S
O1587     Zr1599   2.456   1_455  S
O1587      C1589   1.291       .  A
O1588      C2309   1.299       .  A
C1589      O2308   1.298       .  A
C1589      C2101   1.504       .  S
O1590     Zr2322   2.414       .  S
O1590      C1592   1.281       .  A
O1591      C2312   1.305       .  A
C1592      O2311   1.304       .  A
C1592      C1781   1.520       .  S
O1593     Zr2322   2.420   1_455  S
O1593      C1595   1.283       .  A
O1594     Zr1625   2.467       .  S
O1594      C2315   1.295       .  A
C1595      O2314   1.296       .  A
C1595      C1685   1.499       .  S
O1596     Zr1599   2.426       .  S
O1596      C1598   1.285       .  A
O1597     Zr1626   2.502       .  S
O1597      C2318   1.303       .  A
C1598      O2317   1.301       .  A
C1598      C1906   1.496       .  S
Zr1599     O1600   2.435       .  S
Zr1599     O1601   2.441       .  S
Zr1599     O1606   2.364       .  S
Zr1599     O2349   2.383   1_554  S
Zr1599     O2351   2.347   1_654  S
O1600      H1643   0.990       .  S
O1601      H2362   0.990       .  S
O1601      H1646   0.990   1_655  S
Zr1602     O2310   2.410       .  S
Zr1602     O2313   2.412   1_655  S
Zr1602     O2323   2.436       .  S
Zr1602     O1604   2.434       .  S
Zr1602     O2325   2.363   1_665  S
Zr1602     O1630   2.373   1_655  S
Zr1602     O1632   2.367       .  S
O1603     Zr2322   2.437       .  S
O1603      H1644   0.990       .  S
O1603      H1647   0.990       .  S
O1604      H1637   0.990       .  S
O1605     Zr2322   2.363   1_445  S
O1605     Zr2345   2.391   1_544  S
O1606     Zr2346   2.402   1_554  S
O1607     Zr1619   2.438       .  S
O1607      C1609   1.289       .  A
O1608     Zr1626   2.497       .  S
O1608      C1609   1.301       .  A
C1609      C1746   1.519       .  S
O1610     Zr1622   2.462   1_455  S
O1610      C1612   1.292       .  A
O1611     Zr1625   2.472       .  S
O1611      C1612   1.296       .  A
C1612      C2005   1.506       .  S
O1613     Zr1622   2.446       .  S
O1613      C1615   1.289       .  A
O1614      C1615   1.302       .  A
C1615      C1653   1.504       .  S
O1616     Zr1619   2.436   1_455  S
O1616      C1618   1.288       .  A
O1617      C1618   1.295       .  A
C1618      C1877   1.497       .  S
Zr1619     O1620   2.435       .  S
Zr1619     O1621   2.434       .  S
Zr1619     O1627   2.371       .  S
Zr1619     O1628   2.366   1_655  S
Zr1619     O1631   2.378   1_655  S
Zr1619     O1629   2.368       .  S
O1620      H1640   0.990       .  S
O1620      H1645   0.990       .  S
O1621      H1641   0.990       .  S
Zr1622     O1623   2.433       .  S
Zr1622     O1624   2.436       .  S
Zr1622     O1632   2.384       .  S
Zr1622     O1630   2.355   1_655  S
O1623      H1639   0.990       .  S
O1624      H1638   0.990       .  S
O1624      H1648   0.990       .  S
Zr1625     O2325   2.390   1_565  S
Zr1625     O1630   2.397       .  S
Zr1626     O2326   2.403       .  S
Zr1626     O1627   2.412       .  S
Zr1626     O1629   2.403       .  S
O1627      H1635   0.964       .  S
O1629     Zr2319   2.381       .  S
O1630      H1634   0.965       .  S
O1631     Zr2319   2.352   1_455  S
O1631      H1636   0.967       .  S
H1642      O2321   0.990       .  S
C1649      C1650   1.423       .  A
C1649      C1654   1.412       .  A
C1649      H1656   1.078       .  S
C1650      C1651   1.455       .  A
C1651      C1658   1.507       .  S
C1651      C1652   1.424       .  A
C1652      C1653   1.397       .  A
C1652      H1657   1.085       .  S
C1653      C1654   1.407       .  A
C1654      C1655   1.508       .  S
C1655      H1659   1.111       .  S
C1655      H1660   1.108       .  S
C1655      H1661   1.109       .  S
C1658      H1662   1.109       .  S
C1658      H1663   1.087       .  S
C1658      H1664   1.111       .  S
C1665      C1666   1.425       .  A
C1665      C1670   1.402       .  A
C1665      H1672   1.083       .  S
C1666      C1667   1.434       .  A
C1667      C1674   1.508       .  S
C1667      C1668   1.419       .  A
C1668      C1669   1.413       .  A
C1668      H1673   1.076       .  S
C1669      C1670   1.422       .  A
C1670      C1671   1.511       .  S
C1671      H1675   1.110       .  S
C1671      H1676   1.104       .  S
C1671      H1677   1.111       .  S
C1674      H1678   1.107       .  S
C1674      H1679   1.105       .  S
C1674      H1680   1.110       .  S
C1681      C1682   1.410       .  A
C1681      C1686   1.396       .  A
C1681      H1688   1.063       .  S
C1682      C1683   1.442       .  A
C1683      C1690   1.511       .  S
C1683      C1684   1.418       .  A
C1684      C1685   1.402       .  A
C1684      H2409   1.084   1_554  S
C1685      C1686   1.416       .  A
C1686      C1687   1.514       .  S
C1687      H1691   1.111       .  S
C1687      H1692   1.107       .  S
C1687      H1693   1.110       .  S
H1689      C2404   1.084       .  S
C1690      H1694   1.106       .  S
C1690      H1695   1.103       .  S
C1690      H2416   1.111   1_554  S
H1696      C2410   1.111       .  S
C1697      C1698   1.404       .  A
C1697      C1702   1.407       .  A
C1697      H1704   1.084       .  S
C1698      C1699   1.412       .  A
C1699      C1706   1.511       .  S
C1699      C1700   1.402       .  A
C1700      C1701   1.421       .  A
C1700      H1705   1.071       .  S
C1701      C1702   1.441       .  A
C1702      C1703   1.506       .  S
C1703      H1707   1.111       .  S
C1703      H1708   1.101       .  S
C1703      H1709   1.110       .  S
C1706      H2430   1.112       .  S
C1706      H1711   1.107       .  S
C1706      H1712   1.110       .  S
H1710      C2426   1.112       .  S
C1713      C1714   1.406       .  A
C1713      C1718   1.413       .  A
C1713      H1720   1.077       .  S
C1714      C1715   1.420       .  A
C1715      C1722   1.497       .  S
C1715      C1716   1.402       .  A
C1716      C1717   1.413       .  A
C1716      H1721   1.062       .  S
C1717      C1718   1.439       .  A
C1718      C1719   1.499       .  S
C1719      H1723   1.111       .  S
C1719      H1724   1.104       .  S
C1719      H1725   1.104       .  S
C1722      H1726   1.103       .  S
C1722      H1727   1.108       .  S
C1722      H1728   1.106       .  S
C1729      C1730   1.394       .  A
C1729      C1734   1.393       .  A
C1729      H1736   1.083       .  S
C1730      C1731   1.405       .  A
C1731      C1738   1.502       .  S
C1731      C1732   1.405       .  A
C1732      C1733   1.415       .  A
C1732      H1737   1.078       .  S
C1733      C1734   1.450       .  A
C1734      C1735   1.520       .  S
C1735      H1739   1.087       .  S
C1735      H1740   1.112       .  S
C1735      H1741   1.111       .  S
C1738      H1742   1.110       .  S
C1738      H1743   1.111       .  S
C1738      H1744   1.110       .  S
C1745      C1746   1.404       .  A
C1745      C1750   1.411       .  A
C1745      H1752   1.083       .  S
C1746      C1747   1.414       .  A
C1747      C1754   1.505       .  S
C1747      C1748   1.422       .  A
C1748      C1749   1.423       .  A
C1748      H1753   1.074       .  S
C1749      C1750   1.445       .  A
C1750      C1751   1.519       .  S
C1751      H1755   1.111       .  S
C1751      H1756   1.102       .  S
C1751      H1757   1.107       .  S
C1754      H1758   1.110       .  S
C1761      C1762   1.420       .  A
C1761      C1766   1.401       .  A
C1761      H1768   1.074       .  S
C1762      C1763   1.444       .  A
C1763      C1770   1.512       .  S
C1763      C1764   1.403       .  A
C1764      C1765   1.396       .  A
C1764      H1769   1.083       .  S
C1765      C1766   1.407       .  A
C1766      C1767   1.502       .  S
C1767      H1771   1.111       .  S
C1767      H1772   1.110       .  S
C1767      H1773   1.111       .  S
C1770      H1774   1.092       .  S
C1770      H1775   1.111       .  S
C1770      H1776   1.111       .  S
C1777      C1778   1.410       .  A
C1777      C1782   1.404       .  A
C1777      H1784   1.065       .  S
C1778      C1779   1.441       .  A
C1779      C1786   1.505       .  S
C1779      C1780   1.427       .  A
C1780      C1781   1.405       .  A
C1780      H1785   1.083       .  S
C1781      C1782   1.425       .  A
C1782      C1783   1.514       .  S
C1783      H1787   1.111       .  S
C1783      H1788   1.109       .  S
C1783      H1789   1.110       .  S
C1786      H1790   1.109       .  S
C1786      H1791   1.098       .  S
C1786      H1792   1.111       .  S
C1793      C1794   1.387       .  A
C1793      C1798   1.394       .  A
C1793      H1800   1.083       .  S
C1794      C1795   1.405       .  A
C1795      C1802   1.500       .  S
C1795      C1796   1.406       .  A
C1796      C1797   1.410       .  A
C1796      H1801   1.078       .  S
C1797      C1798   1.455       .  A
C1798      C1799   1.519       .  S
C1799      H1803   1.111       .  S
C1799      H1804   1.112       .  S
C1799      H1805   1.087       .  S
C1802      H1806   1.108       .  S
C1802      H1807   1.111   1_554  S
C1802      H1808   1.110   1_554  S
C1809      C1810   1.400       .  A
C1809      C1814   1.403       .  A
C1809      H1816   1.081       .  S
C1810      C1811   1.432       .  A
C1811      C1818   1.509       .  S
C1811      C1812   1.417       .  A
C1812      C1813   1.418       .  A
C1812      H1817   1.084       .  S
C1813      C1814   1.428       .  A
C1814      C1815   1.499       .  S
C1815      H1819   1.112       .  S
C1815      H1820   1.083       .  S
C1815      H1821   1.103       .  S
C1818      H1822   1.103       .  S
C1818      H1823   1.110       .  S
C1818      H1824   1.110       .  S
C1825      C1826   1.389       .  A
C1825      C1830   1.415       .  A
C1825      H1832   1.080       .  S
C1826      C1827   1.413       .  A
C1827      C1834   1.505       .  S
C1827      C1828   1.426       .  A
C1828      C1829   1.439       .  A
C1828      H1833   1.066       .  S
C1829      C1830   1.452       .  A
C1830      C1831   1.504       .  S
C1831      H1835   1.111       .  S
C1831      H1836   1.101       .  S
C1831      H1837   1.103       .  S
C1834      H1838   1.107       .  S
C1834      H1839   1.107       .  S
C1834      H1840   1.110       .  S
C1841      C1842   1.424       .  A
C1841      C1846   1.415       .  A
C1841      H1848   1.079       .  S
C1842      C1843   1.447       .  A
C1843      C1850   1.504       .  S
C1843      C1844   1.396       .  A
C1844      C1845   1.387       .  A
C1844      H1849   1.086       .  S
C1845      C1846   1.408       .  A
C1846      C1847   1.504       .  S
C1847      H1851   1.111       .  S
C1847      H1852   1.110       .  S
C1847      H1853   1.109       .  S
C1850      H1854   1.111       .  S
C1850      H1855   1.078       .  S
C1850      H1856   1.107       .  S
C1857      C1858   1.384       .  A
C1857      C1862   1.394       .  A
C1857      H1864   1.086       .  S
C1858      C1859   1.412       .  A
C1859      C1866   1.502       .  S
C1859      C1860   1.411       .  A
C1860      C1861   1.416       .  A
C1860      H1865   1.081       .  S
C1861      C1862   1.449       .  A
C1862      C1863   1.514       .  S
C1863      H1867   1.111       .  S
C1863      H1868   1.090       .  S
C1863      H1869   1.111       .  S
C1866      H1870   1.110       .  S
C1866      H1871   1.106       .  S
C1866      H1872   1.110       .  S
C1873      C1874   1.421       .  A
C1873      C1878   1.393       .  A
C1873      H1880   1.077       .  S
C1874      C1875   1.432       .  A
C1875      C1882   1.512       .  S
C1875      C1876   1.420       .  A
C1876      C1877   1.405       .  A
C1876      H1881   1.071       .  S
C1877      C1878   1.408       .  A
C1878      C1879   1.512       .  S
C1879      H1883   1.111       .  S
C1879      H1884   1.108       .  S
C1879      H1885   1.111       .  S
C1882      H1886   1.103       .  S
C1882      H1887   1.103       .  S
C1882      H1888   1.110       .  S
C1889      C1890   1.416       .  A
C1889      C1894   1.402       .  A
C1889      H1896   1.064       .  S
C1890      C1891   1.439       .  A
C1891      C1898   1.503       .  S
C1891      C1892   1.420       .  A
C1892      C1893   1.412       .  A
C1892      H1897   1.083       .  S
C1893      C1894   1.416       .  A
C1894      C1895   1.502       .  S
C1895      H1899   1.110       .  S
C1895      H1900   1.110       .  S
C1895      H1901   1.100       .  S
C1898      H1902   1.111       .  S
C1898      H1903   1.100       .  S
C1898      H1904   1.111       .  S
C1905      C1906   1.405       .  A
C1905      C1910   1.419       .  A
C1905      H1912   1.084       .  S
C1906      C1907   1.404       .  A
C1907      C1914   1.509       .  S
C1907      C1908   1.409       .  A
C1908      C1909   1.430       .  A
C1908      H1913   1.077       .  S
C1909      C1910   1.434       .  A
C1910      C1911   1.509       .  S
C1911      H1915   1.111       .  S
C1911      H1916   1.106       .  S
C1911      H1917   1.105       .  S
C1914      H1918   1.111       .  S
C1914      H1919   1.110       .  S
C1914      H1920   1.111       .  S
C1921      C1922   1.402       .  A
C1921      C1926   1.403       .  A
C1921      H1928   1.086       .  S
C1922      C1923   1.422       .  A
C1923      C1930   1.503       .  S
C1923      C1924   1.428       .  A
C1924      C1925   1.425       .  A
C1924      H1929   1.080       .  S
C1925      C1926   1.447       .  A
C1926      C1927   1.514       .  S
C1927      H1931   1.111       .  S
C1927      H1932   1.111       .  S
C1927      H1933   1.086       .  S
C1930      H2654   1.110       .  S
C1930      H1935   1.105       .  S
C1930      H2656   1.111       .  S
H1934      C2650   1.110       .  S
H1936      C2650   1.110       .  S
C1937      C1938   1.417       .  A
C1937      C1942   1.416       .  A
C1937      H1944   1.082       .  S
C1938      C1939   1.438       .  A
C1939      C1946   1.505       .  S
C1939      C1940   1.417       .  A
C1940      C1941   1.402       .  A
C1940      H1945   1.083       .  S
C1941      C1942   1.419       .  A
C1942      C1943   1.507       .  S
C1943      H1947   1.109       .  S
C1943      H1948   1.110       .  S
C1943      H1949   1.110       .  S
C1946      H1950   1.109       .  S
C1946      H1951   1.105       .  S
C1946      H1952   1.111       .  S
C1953      C1954   1.415       .  A
C1953      C1958   1.422       .  A
C1953      H1960   1.082       .  S
C1954      C1955   1.401       .  A
C1955      C1962   1.512       .  S
C1955      C1956   1.397       .  A
C1956      C1957   1.425       .  A
C1956      H1961   1.067       .  S
C1957      C1958   1.436       .  A
C1958      C1959   1.507       .  S
C1959      H1963   1.111       .  S
C1959      H1964   1.110       .  S
C1959      H1965   1.094       .  S
C1962      H1966   1.102       .  S
C1962      H1967   1.109       .  S
C1962      H1968   1.105       .  S
C1969      C1970   1.413       .  A
C1969      C1974   1.380       .  A
C1969      H1976   1.078       .  S
C1970      C1971   1.428       .  A
C1971      C1978   1.506       .  S
C1971      C1972   1.409       .  A
C1972      C1973   1.405       .  A
C1972      H1977   1.083       .  S
C1973      C1974   1.412       .  A
C1974      C1975   1.500       .  S
C1975      H1979   1.110       .  S
C1975      H1980   1.107       .  S
C1975      H1981   1.108       .  S
C1978      H1982   1.111       .  S
C1978      H1983   1.109       .  S
C1978      H1984   1.100       .  S
C1985      C1986   1.391       .  A
C1985      C1990   1.394       .  A
C1985      H1992   1.084       .  S
C1986      C1987   1.399       .  A
C1987      C1994   1.510       .  S
C1987      C1988   1.392       .  A
C1988      C1989   1.422       .  A
C1988      H1993   1.069       .  S
C1989      C1990   1.445       .  A
C1990      C1991   1.514       .  S
C1991      H1995   1.111       .  S
C1991      H1996   1.091       .  S
C1991      H1997   1.111       .  S
C1994      H1998   1.108       .  S
C1994      H1999   1.110       .  S
C1994      H2000   1.110       .  S
C2001      C2002   1.414       .  A
C2001      C2006   1.412       .  A
C2001      H2008   1.077       .  S
C2002      C2003   1.441       .  A
C2003      C2010   1.510       .  S
C2003      C2004   1.420       .  A
C2004      C2005   1.402       .  A
C2004      H2009   1.084       .  S
C2005      C2006   1.414       .  A
C2006      C2007   1.508       .  S
C2007      H2011   1.111       .  S
C2007      H2013   1.108       .  S
C2010      H2014   1.104       .  S
C2010      H2015   1.107       .  S
C2010      H2016   1.111       .  S
C2017      C2018   1.403       .  A
C2017      C2022   1.413       .  A
C2017      H2024   1.083       .  S
C2018      C2019   1.402       .  A
C2019      C2026   1.513       .  S
C2019      C2020   1.397       .  A
C2020      C2021   1.430       .  A
C2020      H2025   1.068       .  S
C2021      C2022   1.439       .  A
C2022      C2023   1.505       .  S
C2023      H2027   1.110       .  S
C2023      H2028   1.111       .  S
C2023      H2029   1.092       .  S
C2026      H2030   1.108       .  S
C2026      H2031   1.108       .  S
C2026      H2032   1.112       .  S
C2033      C2034   1.419       .  A
C2033      C2038   1.426       .  A
C2033      H2040   1.081       .  S
C2034      C2035   1.416       .  A
C2035      C2042   1.513       .  S
C2035      C2036   1.392       .  A
C2036      C2037   1.417       .  A
C2036      H2041   1.079       .  S
C2037      C2038   1.433       .  A
C2038      C2039   1.506       .  S
C2039      H2043   1.111       .  S
C2039      H2044   1.110       .  S
C2039      H2045   1.101       .  S
C2042      H2046   1.103       .  S
C2042      H2047   1.111       .  S
C2042      H2048   1.111       .  S
C2049      C2050   1.400       .  A
C2049      C2054   1.413       .  A
C2049      H2056   1.084       .  S
C2050      C2051   1.399       .  A
C2051      C2058   1.510       .  S
C2051      C2052   1.387       .  A
C2052      C2053   1.425       .  A
C2052      H2057   1.078       .  S
C2053      C2054   1.435       .  A
C2054      C2055   1.508       .  S
C2055      H2059   1.110       .  S
C2055      H2060   1.101       .  S
C2055      H2061   1.111       .  S
C2058      H2062   1.110       .  S
C2058      H2063   1.110       .  S
C2058      H2064   1.111       .  S
C2065      C2066   1.385       .  A
C2065      C2070   1.389       .  A
C2065      H2072   1.086       .  S
C2066      C2067   1.402       .  A
C2067      C2074   1.503       .  S
C2067      C2068   1.408       .  A
C2068      C2069   1.422       .  A
C2068      H2073   1.079       .  S
C2069      C2070   1.445       .  A
C2070      C2071   1.517       .  S
C2071      H2075   1.094       .  S
C2071      H2076   1.112       .  S
C2071      H2077   1.111       .  S
C2074      H2078   1.111       .  S
C2074      H2079   1.110       .  S
C2074      H2080   1.111       .  S
C2081      C2082   1.415       .  A
C2081      C2086   1.382       .  A
C2081      H2088   1.076       .  S
C2082      C2083   1.447       .  A
C2083      C2090   1.508       .  S
C2083      C2084   1.429       .  A
C2084      C2085   1.406       .  A
C2084      H2089   1.078       .  S
C2085      C2086   1.425       .  A
C2086      C2087   1.526       .  S
C2087      H2091   1.111       .  S
C2087      H2092   1.105       .  S
C2087      H2093   1.106       .  S
C2090      H2094   1.106       .  S
C2090      H2095   1.103       .  S
C2090      H2096   1.111       .  S
C2097      C2098   1.428       .  A
C2097      C2102   1.411       .  A
C2097      H2104   1.077       .  S
C2098      C2099   1.446       .  A
C2099      C2106   1.502       .  S
C2099      C2100   1.420       .  A
C2100      C2101   1.396       .  A
C2100      H2105   1.084       .  S
C2101      C2102   1.403       .  A
C2102      C2103   1.497       .  S
C2103      H2107   1.110       .  S
C2103      H2108   1.111       .  S
C2106      H2110   1.103       .  S
C2106      H2111   1.101       .  S
C2106      H2112   1.111       .  S
C2113      C2114   1.407       .  A
C2113      C2118   1.407       .  A
C2113      H2120   1.080       .  S
C2114      C2115   1.428       .  A
C2115      C2122   1.501       .  S
C2115      C2116   1.411       .  A
C2116      C2117   1.412       .  A
C2116      H2121   1.064       .  S
C2117      C2118   1.438       .  A
C2118      C2119   1.506       .  S
C2119      H2123   1.111       .  S
C2119      H2124   1.097       .  S
C2119      H2125   1.111       .  S
C2122      H2126   1.109       .  S
C2122      H2127   1.106       .  S
C2122      H2128   1.108       .  S
C2129      C2130   1.415       .  A
C2129      C2134   1.425       .  A
C2129      H2136   1.077       .  S
C2130      C2131   1.417       .  A
C2131      C2138   1.518       .  S
C2131      C2132   1.394       .  A
C2132      C2133   1.426       .  A
C2132      H2137   1.083       .  S
C2133      C2134   1.437       .  A
C2134      C2135   1.508       .  S
C2135      H2139   1.111       .  S
C2135      H2140   1.094       .  S
C2135      H2141   1.111       .  S
C2138      H2142   1.105       .  S
C2138      H2143   1.107       .  S
C2138      H2144   1.111       .  S
C2145      C2146   1.405       .  A
C2145      C2150   1.394       .  A
C2145      H2152   1.070       .  S
C2146      C2147   1.435       .  A
C2147      C2154   1.506       .  S
C2147      C2148   1.428       .  A
C2148      C2149   1.415       .  A
C2148      H2153   1.084       .  S
C2149      C2150   1.432       .  A
C2150      C2151   1.510       .  S
C2151      H2155   1.110       .  S
C2151      H2156   1.104       .  S
C2151      H2157   1.091       .  S
C2154      H2158   1.101       .  S
C2154      H2159   1.110       .  S
C2154      H2160   1.111       .  S
C2161      C2818   1.602       .  S
C2161      C2837   1.605       .  S
C2161      C2853   1.589       .  S
C2161      C2869   1.603       .  S
C2162      C2164   1.542       .  S
C2162      C2166   1.562       .  S
C2162      C2165   1.546       .  S
C2162      C2866   1.569       .  S
C2163      C2167   1.508       .  S
C2163      C2169   1.512       .  S
C2163      C2168   1.557       .  S
C2163      C2805   1.546       .  S
C2164      C2172   1.386       .  A
C2164      C2167   1.389       .  A
C2165      C2176   1.367       .  A
C2165      C2168   1.424       .  A
C2166      C2180   1.399       .  A
C2166      C2169   1.397       .  A
C2167      C2170   1.367       .  A
C2168      C2174   1.378       .  A
C2169      C2177   1.372       .  A
C2170      N2171   1.343       .  A
C2170      H2183   1.083       .  S
N2171      C2172   1.352       .  A
N2171      C2786   1.426       .  S
C2172      H2173   1.072       .  S
C2174      N2175   1.361   1_455  A
C2174      H2184   1.081       .  S
N2175      C2176   1.355   1_655  A
N2175      N2224   1.405       .  S
C2176      H2182   1.082       .  S
C2177      N2178   1.338       .  A
C2177      H2179   1.083       .  S
N2178      C2180   1.354       .  A
N2178      C2770   1.428       .  S
C2180      H2181   1.081       .  S
C2185      C2722   1.591       .  S
C2185      C2741   1.604       .  S
C2185      C2754   1.595       .  S
C2185      C2802   1.602       .  S
C2186      C2188   1.521       .  S
C2186      C2190   1.524       .  S
C2186      C2189   1.546       .  S
C2186      C2850   1.550       .  S
C2187      C2191   1.542       .  S
C2187      C2193   1.513       .  S
C2187      C2192   1.526       .  S
C2187      C2674   1.550       .  S
C2188      C2196   1.368       .  A
C2188      C2191   1.401       .  A
C2189      C2200   1.385       .  A
C2189      C2192   1.437       .  A
C2190      C2204   1.370       .  A
C2190      C2193   1.392       .  A
C2191      C2194   1.380       .  A
C2192      C2198   1.362       .  A
C2193      C2201   1.368       .  A
C2194      N2195   1.356       .  A
C2194      H2207   1.082       .  S
N2195      C2196   1.349       .  A
N2195      C2693   1.440       .  S
C2196      H2197   1.078       .  S
C2201      N2202   1.350       .  A
C2201      H2203   1.082       .  S
N2202      C2204   1.351       .  A
N2202      C2706   1.430       .  S
C2204      H2205   1.082       .  S
C2209      C2629   1.600       .  S
C2209      C2645   1.601       .  S
C2209      C2658   1.592       .  S
C2209      C2709   1.578       .  S
C2210      C2594   1.565       .  S
C2210      C2610   1.600       .  S
C2210      C2690   1.590       .  S
C2210      C2773   1.585       .  S
C2211      C2213   1.552       .  S
C2211      C2215   1.550       .  S
C2211      C2214   1.541       .  S
C2211      C2661   1.568       .  S
C2212      C2216   1.558       .  S
C2212      C2218   1.534       .  S
C2212      C2217   1.534       .  S
C2212      C2546   1.570       .  S
C2213      C2221   1.395       .  A
C2213      C2216   1.401       .  A
C2214      C2225   1.372       .  A
C2214      C2217   1.409       .  A
C2215      C2229   1.375       .  A
C2215      C2218   1.401       .  A
C2216      C2219   1.375       .  A
C2217      C2223   1.373       .  A
C2218      C2226   1.377       .  A
C2219      N2220   1.353       .  A
C2219      H2232   1.075       .  S
N2220      C2221   1.360       .  A
N2220      C2565   1.453       .  S
C2221      H2222   1.077       .  S
C2223      N2224   1.356       .  A
C2223      H2233   1.082       .  S
N2224      C2225   1.359       .  A
C2225      H2231   1.082       .  S
C2226      N2227   1.352       .  A
C2226      H2228   1.070       .  S
N2227      C2229   1.354       .  A
N2227      C2578   1.437       .  S
C2229      H2230   1.076       .  S
C2234      C2498   1.590       .  S
C2234      C2517   1.563       .  S
C2234      C2533   1.590       .  S
C2234      C2581   1.579       .  S
C2235      C2469   1.597       .  S
C2235      C2482   1.565       .  S
C2235      C2562   1.590       .  S
C2235      C2677   1.584       .  S
C2236      C2238   1.547       .  S
C2236      C2240   1.550       .  S
C2236      C2239   1.532       .  S
C2236      C2757   1.576       .  S
C2237      C2241   1.545       .  S
C2237      C2243   1.532       .  S
C2237      C2242   1.526       .  S
C2237      C2530   1.563       .  S
C2238      C2246   1.381       .  A
C2238      C2241   1.405       .  A
C2239      C2242   1.420       .  A
C2240      C2254   1.390       .  A
C2240      C2243   1.402       .  A
C2241      C2244   1.396       .  A
C2243      C2251   1.371       .  A
C2244      N2245   1.351       .  A
C2244      H2257   1.077       .  S
N2245      C2246   1.346       .  A
N2245      C2450   1.446       .  S
C2246      H2247   1.081       .  S
C2248      N2249   1.334       .  A
C2248      H2258   1.083       .  S
N2249      C2250   1.343       .  A
C2250      H2256   1.082       .  S
C2251      N2252   1.360       .  A
C2251      H2253   1.065       .  S
N2252      C2254   1.368       .  A
N2252      C2434   1.476       .  S
C2254      H2255   1.075       .  S
C2259      C2402   1.575       .  S
C2259      C2421   1.580       .  S
C2259      C2453   1.572       .  S
C2259      C2789   1.563       .  S
C2260      C2370   1.622       .  S
C2260      C2386   1.598       .  S
C2260      C2437   1.613       .  S
C2260      C2549   1.644       .  S
C2261      C2263   1.525       .  S
C2261      C2265   1.549       .  S
C2261      C2264   1.543       .  S
C2261      C2642   1.570       .  S
C2262      C2266   1.550       .  S
C2262      C2268   1.542       .  S
C2262      C2267   1.518       .  S
C2262      C2418   1.561       .  S
C2263      C2271   1.373       .  A
C2263      C2266   1.404       .  A
C2264      C2267   1.424       .  A
C2265      C2279   1.390       .  A
C2265      C2268   1.404       .  A
C2266      C2269   1.386       .  A
C2268      C2276   1.376       .  A
C2269      N2270   1.352       .  A
C2269      H2282   1.061       .  S
N2270      C2271   1.344       .  A
N2270      C2514   1.442       .  S
C2271      H2272   1.082       .  S
C2273      N2274   1.325   1_554  A
C2273      H2283   1.082   1_554  S
N2274      C2275   1.347   1_556  A
N2274      N2297   1.377       .  S
C2275      H2281   1.078   1_554  S
C2276      N2277   1.357       .  A
C2276      H2278   1.061       .  S
N2277      C2279   1.367       .  A
N2277      C2834   1.474       .  S
C2279      H2280   1.080       .  S
C2284      C2286   1.526       .  S
C2284      C2288   1.541       .  S
C2284      C2287   1.550       .  S
C2284      C2389   1.566       .  S
C2285      C2289   1.532       .  S
C2285      C2291   1.532       .  S
C2285      C2290   1.527       .  S
C2285      C2613   1.560       .  S
C2286      C2294   1.383       .  A
C2286      C2289   1.395       .  A
C2287      C2298   1.379       .  A
C2287      C2290   1.438       .  A
C2288      C2302   1.379       .  A
C2288      C2291   1.410       .  A
C2289      C2292   1.380       .  A
C2290      C2296   1.357       .  A
C2291      C2299   1.390       .  A
C2292      N2293   1.356       .  A
C2292      H2305   1.082       .  S
N2293      C2294   1.356       .  A
N2293      C2485   1.453       .  S
C2294      H2295   1.076       .  S
C2296      N2297   1.330       .  A
C2296      H2306   1.082       .  S
N2297      C2298   1.337       .  A
C2298      H2304   1.078       .  S
C2299      N2300   1.354       .  A
C2299      H2301   1.082       .  S
N2300      C2302   1.352       .  A
N2300      C2738   1.450       .  S
C2302      H2303   1.083       .  S
O2307     Zr2319   2.446   1_455  S
O2307      C2309   1.288       .  A
C2309      C2821   1.503       .  S
O2310      C2312   1.279       .  A
C2312      C2501   1.525       .  S
O2313      C2315   1.281       .  A
O2314     Zr2345   2.469   1_554  S
C2315      C2405   1.495       .  S
O2316     Zr2319   2.430       .  S
O2316      C2318   1.286       .  A
O2317     Zr2346   2.495   1_554  S
C2318      C2626   1.502       .  S
Zr2319     O2320   2.435       .  S
Zr2319     O2321   2.435       .  S
Zr2319     O2326   2.362       .  S
O2320      H2363   0.990       .  S
O2321      H2366   0.990       .  S
Zr2322     O2324   2.435       .  S
Zr2322     O2350   2.374   1_654  S
Zr2322     O2352   2.366   1_554  S
O2323      H2364   0.990       .  S
O2323      H2367   0.990       .  S
O2324      H2357   0.989       .  S
O2327     Zr2339   2.448       .  S
O2327      C2329   1.291       .  A
O2328     Zr2346   2.494       .  S
O2328      C2329   1.300       .  A
C2329      C2466   1.523       .  S
O2330     Zr2342   2.465   1_455  S
O2330      C2332   1.293       .  A
O2331     Zr2345   2.479       .  S
O2331      C2332   1.297       .  A
C2332      C2725   1.511       .  S
O2333     Zr2342   2.448       .  S
O2333      C2335   1.289       .  A
O2334      C2335   1.300       .  A
C2335      C2373   1.502       .  S
O2336     Zr2339   2.436   1_455  S
O2336      C2338   1.288       .  A
O2337      C2338   1.294       .  A
C2338      C2597   1.495       .  S
Zr2339     O2340   2.437       .  S
Zr2339     O2341   2.435       .  S
Zr2339     O2347   2.371       .  S
Zr2339     O2348   2.369   1_655  S
Zr2339     O2351   2.379   1_655  S
Zr2339     O2349   2.365       .  S
O2340      H2360   0.990       .  S
O2340      H2365   0.990       .  S
O2341      H2361   0.990       .  S
Zr2342     O2343   2.433       .  S
Zr2342     O2344   2.436       .  S
Zr2342     O2352   2.383       .  S
Zr2342     O2350   2.357   1_655  S
O2343      H2359   0.990       .  S
O2344      H2358   0.989       .  S
O2344      H2368   0.990       .  S
Zr2345     O2350   2.397       .  S
Zr2346     O2347   2.411       .  S
Zr2346     O2349   2.406       .  S
O2347      H2355   0.965       .  S
O2350      H2354   0.966       .  S
O2351      H2356   0.964       .  S
C2369      C2370   1.421       .  A
C2369      C2374   1.410       .  A
C2369      H2376   1.078       .  S
C2370      C2371   1.455       .  A
C2371      C2378   1.507       .  S
C2371      C2372   1.424       .  A
C2372      C2373   1.397       .  A
C2372      H2377   1.085       .  S
C2373      C2374   1.407       .  A
C2374      C2375   1.507       .  S
C2375      H2379   1.111       .  S
C2375      H2380   1.108       .  S
C2375      H2381   1.108       .  S
C2378      H2382   1.109       .  S
C2378      H2383   1.088       .  S
C2378      H2384   1.111       .  S
C2385      C2386   1.423       .  A
C2385      C2390   1.404       .  A
C2385      H2392   1.083       .  S
C2386      C2387   1.435       .  A
C2387      C2394   1.508       .  S
C2387      C2388   1.420       .  A
C2388      C2389   1.413       .  A
C2388      H2393   1.076       .  S
C2389      C2390   1.423       .  A
C2390      C2391   1.510       .  S
C2391      H2395   1.109       .  S
C2391      H2396   1.105       .  S
C2391      H2397   1.111       .  S
C2394      H2398   1.107       .  S
C2394      H2399   1.104       .  S
C2394      H2400   1.110       .  S
C2401      C2402   1.410       .  A
C2401      C2406   1.395       .  A
C2401      H2408   1.063       .  S
C2402      C2403   1.442       .  A
C2403      C2410   1.511       .  S
C2403      C2404   1.417       .  A
C2404      C2405   1.401       .  A
C2405      C2406   1.415       .  A
C2406      C2407   1.514       .  S
C2407      H2411   1.111       .  S
C2407      H2412   1.109       .  S
C2407      H2413   1.110       .  S
C2410      H2414   1.106       .  S
C2410      H2415   1.104       .  S
C2417      C2418   1.405       .  A
C2417      C2422   1.407       .  A
C2417      H2424   1.084       .  S
C2418      C2419   1.409       .  A
C2419      C2426   1.510       .  S
C2419      C2420   1.400       .  A
C2420      C2421   1.422       .  A
C2420      H2425   1.069       .  S
C2421      C2422   1.441       .  A
C2422      C2423   1.506       .  S
C2423      H2427   1.111       .  S
C2423      H2428   1.101       .  S
C2423      H2429   1.110       .  S
C2426      H2431   1.106       .  S
C2426      H2432   1.110       .  S
C2433      C2434   1.406       .  A
C2433      C2438   1.414       .  A
C2433      H2440   1.077       .  S
C2434      C2435   1.422       .  A
C2435      C2442   1.499       .  S
C2435      C2436   1.404       .  A
C2436      C2437   1.414       .  A
C2436      H2441   1.060       .  S
C2437      C2438   1.439       .  A
C2438      C2439   1.499       .  S
C2439      H2443   1.111       .  S
C2439      H2444   1.104       .  S
C2439      H2445   1.104       .  S
C2442      H2446   1.104       .  S
C2442      H2447   1.107       .  S
C2442      H2448   1.107       .  S
C2449      C2450   1.394       .  A
C2449      C2454   1.393       .  A
C2449      H2456   1.082       .  S
C2450      C2451   1.407       .  A
C2451      C2458   1.501       .  S
C2451      C2452   1.407       .  A
C2452      C2453   1.414       .  A
C2452      H2457   1.079       .  S
C2453      C2454   1.450       .  A
C2454      C2455   1.520       .  S
C2455      H2459   1.087       .  S
C2455      H2460   1.112       .  S
C2455      H2461   1.111       .  S
C2458      H2462   1.110       .  S
C2458      H2463   1.111       .  S
C2458      H2464   1.111       .  S
C2465      C2466   1.404       .  A
C2465      C2470   1.414       .  A
C2465      H2472   1.083       .  S
C2466      C2467   1.414       .  A
C2467      C2474   1.507       .  S
C2467      C2468   1.422       .  A
C2468      C2469   1.425       .  A
C2468      H2473   1.069       .  S
C2469      C2470   1.448       .  A
C2470      C2471   1.518       .  S
C2471      H2475   1.110       .  S
C2471      H2476   1.103       .  S
C2471      H2477   1.106       .  S
C2474      H2478   1.110       .  S
C2481      C2482   1.422       .  A
C2481      C2486   1.405       .  A
C2481      H2488   1.075       .  S
C2482      C2483   1.446       .  A
C2483      C2490   1.514       .  S
C2483      C2484   1.404       .  A
C2484      C2485   1.397       .  A
C2484      H2489   1.083       .  S
C2485      C2486   1.405       .  A
C2486      C2487   1.505       .  S
C2487      H2491   1.111       .  S
C2487      H2492   1.110       .  S
C2487      H2493   1.105       .  S
C2490      H2494   1.094       .  S
C2490      H2495   1.111       .  S
C2490      H2496   1.111       .  S
C2497      C2498   1.408       .  A
C2497      C2502   1.404       .  A
C2497      H2504   1.065       .  S
C2498      C2499   1.440       .  A
C2499      C2506   1.506       .  S
C2499      C2500   1.427       .  A
C2500      C2501   1.406       .  A
C2500      H2505   1.083       .  S
C2501      C2502   1.429       .  A
C2502      C2503   1.515       .  S
C2503      H2507   1.111       .  S
C2503      H2508   1.109       .  S
C2503      H2509   1.110       .  S
C2506      H2510   1.109       .  S
C2506      H2511   1.097       .  S
C2506      H2512   1.111       .  S
C2513      C2514   1.390       .  A
C2513      C2518   1.393       .  A
C2513      H2520   1.083       .  S
C2514      C2515   1.407       .  A
C2515      C2522   1.501       .  S
C2515      C2516   1.405       .  A
C2516      C2517   1.407       .  A
C2516      H2521   1.077       .  S
C2517      C2518   1.450       .  A
C2518      C2519   1.515       .  S
C2519      H2523   1.111       .  S
C2519      H2524   1.111       .  S
C2519      H2525   1.086       .  S
C2522      H2526   1.108       .  S
C2522      H2527   1.111       .  S
C2522      H2528   1.110       .  S
C2529      C2530   1.400       .  A
C2529      C2534   1.403       .  A
C2529      H2536   1.081       .  S
C2530      C2531   1.435       .  A
C2531      C2538   1.510       .  S
C2531      C2532   1.416       .  A
C2532      C2533   1.416       .  A
C2532      H2537   1.084       .  S
C2533      C2534   1.425       .  A
C2534      C2535   1.500       .  S
C2535      H2539   1.111       .  S
C2535      H2540   1.093       .  S
C2535      H2541   1.096       .  S
C2538      H2542   1.103       .  S
C2538      H2543   1.110       .  S
C2538      H2544   1.110       .  S
C2545      C2546   1.391       .  A
C2545      C2550   1.414       .  A
C2545      H2552   1.080       .  S
C2546      C2547   1.415       .  A
C2547      C2554   1.505       .  S
C2547      C2548   1.426       .  A
C2548      C2549   1.438       .  A
C2548      H2553   1.067       .  S
C2549      C2550   1.447       .  A
C2550      C2551   1.502       .  S
C2551      H2555   1.111       .  S
C2551      H2556   1.102       .  S
C2551      H2557   1.104       .  S
C2554      H2558   1.108       .  S
C2554      H2559   1.107       .  S
C2554      H2560   1.110       .  S
C2561      C2562   1.425       .  A
C2561      C2566   1.417       .  A
C2561      H2568   1.076       .  S
C2562      C2563   1.446       .  A
C2563      C2570   1.502       .  S
C2563      C2564   1.398       .  A
C2564      C2565   1.389       .  A
C2564      H2569   1.086       .  S
C2565      C2566   1.409       .  A
C2566      C2567   1.504       .  S
C2567      H2571   1.111       .  S
C2567      H2572   1.110       .  S
C2567      H2573   1.109       .  S
C2570      H2574   1.111       .  S
C2570      H2575   1.078       .  S
C2570      H2576   1.106       .  S
C2577      C2578   1.383       .  A
C2577      C2582   1.393       .  A
C2577      H2584   1.086       .  S
C2578      C2579   1.412       .  A
C2579      C2586   1.503       .  S
C2579      C2580   1.412       .  A
C2580      C2581   1.417       .  A
C2580      H2585   1.081       .  S
C2581      C2582   1.450       .  A
C2582      C2583   1.515       .  S
C2583      H2587   1.111       .  S
C2583      H2588   1.092       .  S
C2583      H2589   1.110       .  S
C2586      H2590   1.111       .  S
C2586      H2591   1.106       .  S
C2586      H2592   1.111       .  S
C2593      C2594   1.420       .  A
C2593      C2598   1.391       .  A
C2593      H2600   1.076       .  S
C2594      C2595   1.430       .  A
C2595      C2602   1.511       .  S
C2595      C2596   1.420       .  A
C2596      C2597   1.406       .  A
C2596      H2601   1.072       .  S
C2597      C2598   1.407       .  A
C2598      C2599   1.513       .  S
C2599      H2603   1.111       .  S
C2599      H2604   1.109       .  S
C2599      H2605   1.111       .  S
C2602      H2606   1.103       .  S
C2602      H2607   1.102       .  S
C2602      H2608   1.110       .  S
C2609      C2610   1.417       .  A
C2609      C2614   1.401       .  A
C2609      H2616   1.060       .  S
C2610      C2611   1.439       .  A
C2611      C2618   1.503       .  S
C2611      C2612   1.419       .  A
C2612      C2613   1.411       .  A
C2612      H2617   1.083       .  S
C2613      C2614   1.414       .  A
C2614      C2615   1.505       .  S
C2615      H2619   1.109       .  S
C2615      H2620   1.105       .  S
C2615      H2621   1.106       .  S
C2618      H2622   1.110       .  S
C2618      H2623   1.097       .  S
C2618      H2624   1.111       .  S
C2625      C2626   1.406       .  A
C2625      C2630   1.421       .  A
C2625      H2632   1.084       .  S
C2626      C2627   1.404       .  A
C2627      C2634   1.508       .  S
C2627      C2628   1.412       .  A
C2628      C2629   1.431       .  A
C2628      H2633   1.077       .  S
C2629      C2630   1.434       .  A
C2630      C2631   1.508       .  S
C2631      H2635   1.111       .  S
C2631      H2636   1.106       .  S
C2631      H2637   1.105       .  S
C2634      H2638   1.110       .  S
C2634      H2639   1.110       .  S
C2634      H2640   1.111       .  S
C2641      C2642   1.401       .  A
C2641      C2646   1.403       .  A
C2641      H2648   1.086       .  S
C2642      C2643   1.423       .  A
C2643      C2650   1.503       .  S
C2643      C2644   1.428       .  A
C2644      C2645   1.424       .  A
C2644      H2649   1.081       .  S
C2645      C2646   1.447       .  A
C2646      C2647   1.515       .  S
C2647      H2651   1.111       .  S
C2647      H2652   1.111       .  S
C2647      H2653   1.086       .  S
C2650      H2655   1.105       .  S
C2657      C2658   1.418       .  A
C2657      C2662   1.417       .  A
C2657      H2664   1.082       .  S
C2658      C2659   1.437       .  A
C2659      C2666   1.505       .  S
C2659      C2660   1.419       .  A
C2660      C2661   1.405       .  A
C2660      H2665   1.083       .  S
C2661      C2662   1.421       .  A
C2662      C2663   1.507       .  S
C2663      H2667   1.109       .  S
C2663      H2668   1.110       .  S
C2663      H2669   1.110       .  S
C2666      H2670   1.109       .  S
C2666      H2671   1.105       .  S
C2666      H2672   1.111       .  S
C2673      C2674   1.418       .  A
C2673      C2678   1.425       .  A
C2673      H2680   1.080       .  S
C2674      C2675   1.403       .  A
C2675      C2682   1.513       .  S
C2675      C2676   1.396       .  A
C2676      C2677   1.421       .  A
C2676      H2681   1.067       .  S
C2677      C2678   1.431       .  A
C2678      C2679   1.509       .  S
C2679      H2683   1.111       .  S
C2679      H2684   1.106       .  S
C2679      H2685   1.102       .  S
C2682      H2686   1.102       .  S
C2682      H2687   1.109       .  S
C2682      H2688   1.106       .  S
C2689      C2690   1.412       .  A
C2689      C2694   1.381       .  A
C2689      H2696   1.079       .  S
C2690      C2691   1.429       .  A
C2691      C2698   1.506       .  S
C2691      C2692   1.410       .  A
C2692      C2693   1.406       .  A
C2692      H2697   1.083       .  S
C2693      C2694   1.413       .  A
C2694      C2695   1.500       .  S
C2695      H2699   1.110       .  S
C2695      H2700   1.107       .  S
C2695      H2701   1.108       .  S
C2698      H2702   1.111       .  S
C2698      H2703   1.108       .  S
C2698      H2704   1.100       .  S
C2705      C2706   1.392       .  A
C2705      C2710   1.397       .  A
C2705      H2712   1.084       .  S
C2706      C2707   1.398       .  A
C2707      C2714   1.510       .  S
C2707      C2708   1.390       .  A
C2708      C2709   1.422       .  A
C2708      H2713   1.068       .  S
C2709      C2710   1.445       .  A
C2710      C2711   1.514       .  S
C2711      H2715   1.111       .  S
C2711      H2716   1.092       .  S
C2711      H2717   1.111       .  S
C2714      H2718   1.108       .  S
C2714      H2719   1.110       .  S
C2714      H2720   1.111       .  S
C2721      C2722   1.415       .  A
C2721      C2726   1.414       .  A
C2721      H2728   1.077       .  S
C2722      C2723   1.443       .  A
C2723      C2730   1.510       .  S
C2723      C2724   1.423       .  A
C2724      C2725   1.403       .  A
C2724      H2729   1.084       .  S
C2725      C2726   1.414       .  A
C2726      C2727   1.508       .  S
C2727      H2731   1.111       .  S
C2727      H2733   1.108       .  S
C2730      H2734   1.107       .  S
C2730      H2735   1.104       .  S
C2730      H2736   1.111       .  S
C2737      C2738   1.403       .  A
C2737      C2742   1.414       .  A
C2737      H2744   1.083       .  S
C2738      C2739   1.403       .  A
C2739      C2746   1.513       .  S
C2739      C2740   1.397       .  A
C2740      C2741   1.430       .  A
C2740      H2745   1.066       .  S
C2741      C2742   1.441       .  A
C2742      C2743   1.505       .  S
C2743      H2747   1.111       .  S
C2743      H2748   1.111       .  S
C2743      H2749   1.092       .  S
C2746      H2750   1.108       .  S
C2746      H2751   1.109       .  S
C2746      H2752   1.111       .  S
C2753      C2754   1.420       .  A
C2753      C2758   1.430       .  A
C2753      H2760   1.082       .  S
C2754      C2755   1.418       .  A
C2755      C2762   1.513       .  S
C2755      C2756   1.395       .  A
C2756      C2757   1.417       .  A
C2756      H2761   1.078       .  S
C2757      C2758   1.434       .  A
C2758      C2759   1.506       .  S
C2759      H2763   1.111       .  S
C2759      H2764   1.110       .  S
C2759      H2765   1.101       .  S
C2762      H2766   1.103       .  S
C2762      H2767   1.110       .  S
C2762      H2768   1.111       .  S
C2769      C2770   1.399       .  A
C2769      C2774   1.413       .  A
C2769      H2776   1.084       .  S
C2770      C2771   1.398       .  A
C2771      C2778   1.510       .  S
C2771      C2772   1.387       .  A
C2772      C2773   1.425       .  A
C2772      H2777   1.079       .  S
C2773      C2774   1.438       .  A
C2774      C2775   1.510       .  S
C2775      H2779   1.111       .  S
C2775      H2780   1.099       .  S
C2775      H2781   1.111       .  S
C2778      H2782   1.110       .  S
C2778      H2783   1.110       .  S
C2778      H2784   1.111       .  S
C2785      C2786   1.384       .  A
C2785      C2790   1.388       .  A
C2785      H2792   1.086       .  S
C2786      C2787   1.402       .  A
C2787      C2794   1.503       .  S
C2787      C2788   1.408       .  A
C2788      C2789   1.422       .  A
C2788      H2793   1.079       .  S
C2789      C2790   1.445       .  A
C2790      C2791   1.517       .  S
C2791      H2795   1.093       .  S
C2791      H2796   1.112       .  S
C2791      H2797   1.111       .  S
C2794      H2798   1.111       .  S
C2794      H2799   1.109       .  S
C2794      H2800   1.111       .  S
C2801      C2802   1.414       .  A
C2801      C2806   1.381       .  A
C2801      H2808   1.077       .  S
C2802      C2803   1.447       .  A
C2803      C2810   1.509       .  S
C2803      C2804   1.431       .  A
C2804      C2805   1.407       .  A
C2804      H2809   1.079       .  S
C2805      C2806   1.426       .  A
C2806      C2807   1.526       .  S
C2807      H2811   1.111       .  S
C2807      H2812   1.105       .  S
C2807      H2813   1.106       .  S
C2810      H2814   1.106       .  S
C2810      H2815   1.103       .  S
C2810      H2816   1.111       .  S
C2817      C2818   1.427       .  A
C2817      C2822   1.410       .  A
C2817      H2824   1.077       .  S
C2818      C2819   1.447       .  A
C2819      C2826   1.503       .  S
C2819      C2820   1.420       .  A
C2820      C2821   1.397       .  A
C2820      H2825   1.084       .  S
C2821      C2822   1.402       .  A
C2822      C2823   1.497       .  S
C2823      H2827   1.110       .  S
C2823      H2828   1.111       .  S
C2826      H2830   1.103       .  S
C2826      H2831   1.101       .  S
C2826      H2832   1.111       .  S
C2833      C2834   1.405       .  A
C2833      C2838   1.407       .  A
C2833      H2840   1.080       .  S
C2834      C2835   1.427       .  A
C2835      C2842   1.501       .  S
C2835      C2836   1.410       .  A
C2836      C2837   1.412       .  A
C2836      H2841   1.064       .  S
C2837      C2838   1.440       .  A
C2838      C2839   1.506       .  S
C2839      H2843   1.111       .  S
C2839      H2844   1.095       .  S
C2839      H2845   1.111       .  S
C2842      H2846   1.109       .  S
C2842      H2847   1.107       .  S
C2842      H2848   1.106       .  S
C2849      C2850   1.413       .  A
C2849      C2854   1.421       .  A
C2849      H2856   1.076       .  S
C2850      C2851   1.417       .  A
C2851      C2858   1.518       .  S
C2851      C2852   1.394       .  A
C2852      C2853   1.427       .  A
C2852      H2857   1.083       .  S
C2853      C2854   1.436       .  A
C2854      C2855   1.508       .  S
C2855      H2859   1.111       .  S
C2855      H2860   1.092       .  S
C2855      H2861   1.111       .  S
C2858      H2862   1.106       .  S
C2858      H2863   1.107       .  S
C2858      H2864   1.111       .  S
C2865      C2866   1.404       .  A
C2865      C2870   1.393       .  A
C2865      H2872   1.069       .  S
C2866      C2867   1.436       .  A
C2867      C2874   1.506       .  S
C2867      C2868   1.428       .  A
C2868      C2869   1.415       .  A
C2868      H2873   1.084       .  S
C2869      C2870   1.432       .  A
C2870      C2871   1.510       .  S
C2871      H2875   1.110       .  S
C2871      H2876   1.104       .  S
C2871      H2877   1.090       .  S
C2874      H2878   1.100       .  S
C2874      H2879   1.110       .  S
C2874      H2880   1.111       .  S
