geometry optimzed in LAMMPS
_audit_creation_date              2020-12-01 
_audit_creation_method            'lammps2cif' 
_symmetry_space_group_name_H-M    'P1' 
_symmetry_Int_Tables_number       1 
_symmetry_cell_setting            triclinic 
loop_ 
_symmetry_equiv_pos_as_xyz 
  x,y,z 
_cell_length_a                    48.19513967 
_cell_length_b                    45.12275317024481 
_cell_length_c                    45.21030467219811 
_cell_angle_alpha                 89.86380045889808 
_cell_angle_beta                  89.88501261793111 
_cell_angle_gamma                 90.01849253239871 
loop_ 
_atom_site_label 
_atom_site_type_symbol 
_atom_site_fract_x 
_atom_site_fract_y 
_atom_site_fract_z 
_atom_site_charge 
N1          N  0.46937020  0.46574492  0.05776388    -0.07200
N2          N  0.45069373  0.46098662  0.07866349    -0.59300
N3          N  0.03366276  0.44323433  0.03903441    -0.06900
N4          N  0.05432674  0.42466720  0.04387328    -0.61500
N5          N  0.03481227  0.46552797  0.05768590    -0.06500
N6          N  0.05637808  0.46254556  0.07545874    -0.59300
N7          N  0.46904042  0.44406560  0.03835082    -0.06200
N8          N  0.45007607  0.42419008  0.04552628    -0.61800
C9          C  0.43862573  0.43525115  0.07045012     0.95000
C10         C  0.06860409  0.43703190  0.06646539     0.94700
N11         N  0.03386598  0.45778499  0.44990744    -0.07400
N12         N  0.05354264  0.45078320  0.43084356    -0.59900
N13         N  0.46962830  0.44164096  0.47042631    -0.05500
N14         N  0.44930226  0.42245427  0.46603122    -0.61200
N15         N  0.47063038  0.46085215  0.44854894    -0.07400
N16         N  0.45122273  0.45510225  0.42892910    -0.60200
N17         N  0.03284039  0.43829582  0.47156466    -0.05200
N18         N  0.05180119  0.41750973  0.46763401    -0.61300
Mn19       Mn  0.00080251  0.44017806  0.00523235     1.18400
C20         C  0.06470555  0.42587812  0.44236689     0.97000
C21         C  0.43775375  0.43132965  0.44010292     0.97700
N22         N  0.03438691  0.03643949  0.05417719    -0.07500
N23         N  0.05258288  0.04463401  0.07438846    -0.63800
N24         N  0.47231329  0.05531823  0.03165828    -0.06300
N25         N  0.45219967  0.07485664  0.03536571    -0.64400
N26         N  0.47275832  0.03635256  0.05384483    -0.07000
N27         N  0.45300427  0.04261255  0.07309484    -0.64000
N28         N  0.03431169  0.05536534  0.03199487    -0.05900
N29         N  0.05245380  0.07673984  0.03666545    -0.64700
Mn30       Mn  0.50458133  0.00141622  0.05698295     1.10700
C31         C  0.06369399  0.06982898  0.06318163     0.98300
C32         C  0.44016652  0.06635707  0.06106334     0.98300
N33         N  0.47014436  0.02908701  0.44115536    -0.07000
N34         N  0.45090574  0.03317855  0.42082635    -0.62300
N35         N  0.03428063  0.05085556  0.46072808    -0.06300
N36         N  0.05366502  0.07039668  0.45379840    -0.59100
N37         N  0.03473508  0.02850833  0.44211292    -0.07600
N38         N  0.05448265  0.03243585  0.42220668    -0.61900
N39         N  0.47012947  0.05121935  0.45999622    -0.06600
N40         N  0.45095232  0.07087833  0.45268261    -0.59100
Mn41       Mn  0.00297689  0.49327272  0.44597692     1.20200
Mn42       Mn  0.50194389  0.05392892  0.49494747     1.10100
Cl43       Cl  0.00269739  0.99690921  0.00147016    -0.87100
C44         C  0.43905114  0.05937159  0.42809246     0.95300
C45         C  0.06615228  0.05868902  0.42964623     0.95100
C46         C  0.14344951  0.13119744  0.35966224     0.85400
C47         C  0.13795162  0.12984832  0.32595455    -0.54900
C48         C  0.15503558  0.14721429  0.30927995     0.08300
C49         C  0.17534141  0.16572048  0.32773148     0.19300
C50         C  0.17475007  0.12510899  0.36314835    -0.55600
C51         C  0.19138735  0.14304782  0.34637640     0.08400
C52         C  0.13999234  0.16450215  0.36628647    -0.55100
C53         C  0.15680534  0.18253126  0.34973597     0.09000
H54         H  0.12096318  0.11805871  0.31570859     0.13500
H55         H  0.18899059  0.18040728  0.31434854    -0.00800
H56         H  0.18299484  0.10797521  0.37756488     0.13800
H57         H  0.12541636  0.17312777  0.38244265     0.13600
C58         C  0.14452951  0.36036921  0.37042313     0.85400
C59         C  0.14381960  0.32671020  0.37592480    -0.54900
C60         C  0.16033543  0.31058772  0.35748868     0.08300
C61         C  0.17663098  0.32965638  0.33513579     0.19300
C62         C  0.17572837  0.36812488  0.37284497    -0.55600
C63         C  0.19243062  0.35218064  0.35437441     0.08400
C64         C  0.13813564  0.36441205  0.33726866    -0.55100
C65         C  0.15450122  0.34808489  0.31878201     0.09000
H66         H  0.13088094  0.31639351  0.39274634     0.13500
H67         H  0.19016811  0.31657586  0.32015721    -0.00800
H68         H  0.18473440  0.38397498  0.38790893     0.13800
H69         H  0.12197232  0.37906396  0.32912158     0.13600
C70         C  0.14770896  0.37187072  0.13946055     0.85400
C71         C  0.14069888  0.37440156  0.17281845    -0.54900
C72         C  0.15673736  0.35692317  0.19071120     0.08300
C73         C  0.17733877  0.33741592  0.17367247     0.19300
C74         C  0.17922152  0.37708532  0.13715759    -0.55600
C75         C  0.19471136  0.35903591  0.15505376     0.08400
C76         C  0.14404599  0.33838526  0.13358306    -0.55100
C77         C  0.15951029  0.32056297  0.15141338     0.09000
H78         H  0.12399167  0.38789820  0.18156796     0.13500
H79         H  0.18986524  0.32248989  0.18793620    -0.00800
H80         H  0.18845354  0.39315014  0.12216426     0.13800
H81         H  0.12999693  0.32913183  0.11733465     0.13600
C82         C  0.14172342  0.14358421  0.13018587     0.85400
C83         C  0.14160073  0.17744962  0.12445107    -0.54900
C84         C  0.15911231  0.19306620  0.14219882     0.08300
C85         C  0.17529619  0.17375926  0.16417206     0.19300
C86         C  0.17255532  0.13521544  0.12671011    -0.55600
C87         C  0.19013726  0.15053337  0.14479010     0.08400
C88         C  0.13548327  0.14079008  0.16346137    -0.55100
C89         C  0.15283241  0.15655135  0.18130873     0.09000
H90         H  0.12932502  0.18899444  0.10812988     0.13500
H91         H  0.18945833  0.18666142  0.17854172    -0.00800
H92         H  0.17984531  0.11868943  0.11109988     0.13800
H93         H  0.11867941  0.12727529  0.17217596     0.13600
C94         C  0.35970619  0.12815802  0.35668054     0.85400
C95         C  0.36510599  0.16174465  0.36005072    -0.54900
C96         C  0.34797472  0.17962682  0.34357040     0.08300
C97         C  0.32753105  0.16193720  0.32439401     0.19300
C98         C  0.32849909  0.12425037  0.36301630    -0.55600
C99         C  0.31174778  0.14196969  0.34621164     0.08400
C100        C  0.36265802  0.12343235  0.32291748    -0.55100
C101        C  0.34606356  0.14110858  0.30627786     0.09000
H102        H  0.38120620  0.17059219  0.37427449     0.13500
H103        H  0.31322154  0.17559194  0.31094693    -0.00800
H104        H  0.32039541  0.10857259  0.37911567     0.13800
H105        H  0.37771096  0.10929923  0.31216039     0.13600
C106        C  0.35895793  0.13536906  0.12791404     0.85400
C107        C  0.36218180  0.12786361  0.16089379    -0.54900
C108        C  0.34561662  0.14398519  0.17907082     0.08300
C109        C  0.32702705  0.16635487  0.16297406     0.19300
C110        C  0.32736471  0.13109057  0.12234715    -0.55600
C111        C  0.31068671  0.14771754  0.14052673     0.08400
C112        C  0.36318428  0.16918366  0.12562402    -0.55100
C113        C  0.34668803  0.18532359  0.14407714     0.09000
H114        H  0.37650651  0.11125225  0.16923418     0.13500
H115        H  0.31404660  0.17977761  0.17821078    -0.00800
H116        H  0.31844595  0.11593671  0.10654790     0.13800
H117        H  0.37810573  0.17946125  0.11076551     0.13600
C118        C  0.36241200  0.36427339  0.14218549     0.85400
C119        C  0.36813705  0.33091763  0.13835039    -0.54900
C120        C  0.35181437  0.31301879  0.15542496     0.08300
C121        C  0.33081576  0.32991857  0.17458481     0.19300
C122        C  0.33092688  0.36751325  0.13607709    -0.55600
C123        C  0.31451701  0.34923474  0.15266465     0.08400
C124        C  0.36450307  0.37003546  0.17574069    -0.55100
C125        C  0.34814778  0.35194728  0.19258215     0.09000
H126        H  0.38323780  0.32222344  0.12276042     0.13500
H127        H  0.31757733  0.31524205  0.18845447    -0.00800
H128        H  0.32160300  0.38406524  0.12193692     0.13800
H129        H  0.37785913  0.38679732  0.18538992     0.13600
C130        C  0.36057581  0.35850625  0.37148717     0.85400
C131        C  0.36510539  0.36368097  0.33796071    -0.54900
C132        C  0.34797783  0.34755976  0.32032105     0.08300
C133        C  0.32777810  0.32761299  0.33747853     0.19300
C134        C  0.32952978  0.36447716  0.37648169    -0.55600
C135        C  0.31237896  0.34824553  0.35884966     0.08400
C136        C  0.36425798  0.32456370  0.37441415    -0.55100
C137        C  0.34649865  0.30823415  0.35726829     0.09000
H138        H  0.38103257  0.37795294  0.32865908     0.13500
H139        H  0.31346976  0.31499339  0.32299904    -0.00800
H140        H  0.32187300  0.38072266  0.39218528     0.13800
H141        H  0.38075021  0.31443030  0.38714816     0.13600
C142        C  0.34916925  0.34905778  0.28765458    -0.07200
C143        C  0.33260193  0.37009076  0.27319700    -0.18400
C144        C  0.33230157  0.37236155  0.24226211     0.10000
C145        C  0.34829114  0.35230401  0.22528473    -0.07200
C146        C  0.36491834  0.33138054  0.23980066    -0.18400
C147        C  0.36618341  0.33005356  0.27068817     0.10000
S148        S  0.31099446  0.40134322  0.22657432    -0.33400
S149        S  0.39023868  0.30385159  0.28658985    -0.33400
H150        H  0.39408406  0.31816829  0.31375468     0.28000
H151        H  0.31863735  0.39851244  0.19682410     0.28000
H152        H  0.31995304  0.38508347  0.28618599     0.18600
H153        H  0.37743510  0.31621178  0.22693833     0.18600
C154        C  0.34809005  0.21813621  0.14619182    -0.07200
C155        C  0.37341437  0.23161864  0.15351966    -0.18400
C156        C  0.37544288  0.26241767  0.15713748     0.10000
C157        C  0.35162789  0.28027271  0.15297562    -0.07200
C158        C  0.32646395  0.26677433  0.14540948    -0.18400
C159        C  0.32448156  0.23604948  0.14169890     0.10000
S160        S  0.40871911  0.27710152  0.16795703    -0.33400
S161        S  0.29208921  0.22035324  0.12952588    -0.33400
H162        H  0.27790287  0.24724298  0.12521399     0.28000
H163        H  0.39868801  0.30258984  0.18205514     0.28000
H164        H  0.39159247  0.21795227  0.15714296     0.18600
H165        H  0.30838571  0.28055775  0.14179311     0.18600
C166        C  0.34740326  0.14112713  0.27368360    -0.07200
C167        C  0.32771885  0.12427736  0.25837074    -0.18400
C168        C  0.32770089  0.12318738  0.22746945     0.10000
C169        C  0.34658201  0.14102379  0.21148645    -0.07200
C170        C  0.36697442  0.15690274  0.22670005    -0.18400
C171        C  0.36830323  0.15634641  0.25758615     0.10000
S172        S  0.30400950  0.09758088  0.21020108    -0.33400
S173        S  0.39735053  0.17552111  0.27416333    -0.33400
H174        H  0.39262325  0.16871359  0.30388771     0.28000
H175        H  0.31862112  0.09421102  0.18354020     0.28000
H176        H  0.31281857  0.11107856  0.27061216     0.18600
H177        H  0.38213621  0.16968803  0.21432855     0.18600
C178        C  0.34807338  0.21269579  0.34613821    -0.07200
C179        C  0.35180586  0.22504232  0.37436628    -0.18400
C180        C  0.35118525  0.25566952  0.37905922     0.10000
C181        C  0.34707164  0.27515706  0.35483005    -0.07200
C182        C  0.34323011  0.26277796  0.32668922    -0.18400
C183        C  0.34382470  0.23214364  0.32188874     0.10000
S184        S  0.35405009  0.26754958  0.41687971    -0.33400
S185        S  0.34025663  0.21926601  0.28429511    -0.33400
H186        H  0.34028691  0.24697881  0.26998238     0.28000
H187        H  0.33473898  0.29045451  0.41391800     0.28000
H188        H  0.35427441  0.21060078  0.39336204     0.18600
H189        H  0.34016679  0.27726364  0.30796174     0.18600
C190        C  0.22087872  0.14700907  0.14378982    -0.07200
C191        C  0.23446652  0.14706497  0.11623023    -0.18400
C192        C  0.26353349  0.14749482  0.11415747     0.10000
C193        C  0.27970360  0.14711862  0.14031216    -0.07200
C194        C  0.26594160  0.14707951  0.16769799    -0.18400
C195        C  0.23707457  0.14619513  0.16971803     0.10000
S196        S  0.27819807  0.15140481  0.07762134    -0.33400
S197        S  0.22238690  0.14211396  0.20607834    -0.33400
H198        H  0.20204520  0.12184489  0.19679438     0.28000
H199        H  0.30030271  0.16980702  0.08615811     0.28000
H200        H  0.22234099  0.14838461  0.09611398     0.18600
H201        H  0.27772313  0.14726798  0.18798904     0.18600
C202        C  0.15899730  0.28791279  0.14945846    -0.07200
C203        C  0.18419428  0.27287313  0.14565608    -0.18400
C204        C  0.18479757  0.24212968  0.14184468     0.10000
C205        C  0.15977710  0.22589393  0.14239204    -0.07200
C206        C  0.13456858  0.24107627  0.14577367    -0.18400
C207        C  0.13394602  0.27168847  0.15003013     0.10000
S208        S  0.21781751  0.22515849  0.13449936    -0.33400
S209        S  0.10075786  0.28831445  0.15807838    -0.33400
H210        H  0.11117134  0.30974879  0.17768324     0.28000
H211        H  0.20718819  0.20506264  0.11366806     0.28000
H212        H  0.20345275  0.28527324  0.14474509     0.18600
H213        H  0.11527859  0.22875394  0.14679082     0.18600
C214        C  0.28374263  0.35088933  0.15233982    -0.07200
C215        C  0.26996662  0.35365980  0.17945450    -0.18400
C216        C  0.24122955  0.35776763  0.18087362     0.10000
C217        C  0.22552143  0.35797113  0.15455898    -0.07200
C218        C  0.23920115  0.35456914  0.12732320    -0.18400
C219        C  0.26813226  0.35092480  0.12590919     0.10000
S220        S  0.22533695  0.36464166  0.21632532    -0.33400
S221        S  0.28456063  0.34423644  0.09058099    -0.33400
H222        H  0.26030939  0.34512589  0.07334430     0.28000
H223        H  0.24939818  0.36124343  0.23354456     0.28000
H224        H  0.28193079  0.35333025  0.19962709     0.18600
H225        H  0.22704012  0.35393572  0.10722803     0.18600
C226        C  0.15243481  0.35005348  0.28592722    -0.07200
C227        C  0.15419518  0.37805591  0.27244283    -0.18400
C228        C  0.15563484  0.38110552  0.24161944     0.10000
C229        C  0.15420016  0.35563335  0.22347841    -0.07200
C230        C  0.15159278  0.32772438  0.23694120    -0.18400
C231        C  0.15040930  0.32472431  0.26774916     0.10000
S232        S  0.16159651  0.41785780  0.22728467    -0.33400
S233        S  0.14454538  0.28822737  0.28241317    -0.33400
H234        H  0.12534512  0.29833572  0.30355336     0.28000
H235        H  0.17865734  0.40908157  0.20362654     0.28000
H236        H  0.15596559  0.39766244  0.28611054     0.18600
H237        H  0.15009375  0.30806191  0.22329827     0.18600
C238        C  0.22316992  0.35427153  0.35546553    -0.07200
C239        C  0.23644944  0.35097476  0.38287239    -0.18400
C240        C  0.26536782  0.34917738  0.38484616     0.10000
C241        C  0.28166845  0.35104788  0.35883252    -0.07200
C242        C  0.26835502  0.35536420  0.33158611    -0.18400
C243        C  0.23947057  0.35755727  0.32976681     0.10000
S244        S  0.27978548  0.34239980  0.42091260    -0.33400
S245        S  0.22468125  0.36644456  0.29444359    -0.33400
H246        H  0.20449446  0.38552986  0.30631660     0.28000
H247        H  0.29969300  0.32243978  0.41044459     0.28000
H248        H  0.22412645  0.34831871  0.40278402     0.18600
H249        H  0.28058169  0.35764233  0.31157832     0.18600
C250        C  0.15333608  0.14900697  0.27650212    -0.07200
C251        C  0.15417562  0.17708318  0.26316351    -0.18400
C252        C  0.15284652  0.18035346  0.23242282     0.10000
C253        C  0.15122798  0.15500863  0.21418402    -0.07200
C254        C  0.14970464  0.12696276  0.22757195    -0.18400
C255        C  0.15109229  0.12358834  0.25828682     0.10000
S256        S  0.15117495  0.21746822  0.21810685    -0.33400
S257        S  0.15181825  0.08606467  0.27222063    -0.33400
H258        H  0.17026449  0.09161209  0.29559040     0.28000
H259        H  0.12971371  0.21032687  0.19837033     0.28000
H260        H  0.15516045  0.19675036  0.27684657     0.18600
H261        H  0.14880142  0.10730620  0.21387145     0.18600
C262        C  0.22220304  0.14131125  0.34646264    -0.07200
C263        C  0.23656275  0.14584192  0.37307483    -0.18400
C264        C  0.26568865  0.14653615  0.37379022     0.10000
C265        C  0.28093002  0.14157846  0.34750923    -0.07200
C266        C  0.26653004  0.13690292  0.32105375    -0.18400
C267        C  0.23748117  0.13660337  0.32021132     0.10000
S268        S  0.28203474  0.15578216  0.40837462    -0.33400
S269        S  0.22040242  0.12904897  0.28560740    -0.33400
H270        H  0.24435015  0.12255281  0.26901548     0.28000
H271        H  0.30399787  0.17201496  0.39572898     0.28000
H272        H  0.22498524  0.15002473  0.39321320     0.18600
H273        H  0.27818855  0.13337036  0.30092376     0.18600
C274        C  0.15712227  0.21530527  0.35229788    -0.07200
C275        C  0.18272588  0.22954943  0.35636782    -0.18400
C276        C  0.18445028  0.26053251  0.35882547     0.10000
C277        C  0.15999515  0.27765552  0.35731645    -0.07200
C278        C  0.13433570  0.26327259  0.35420134    -0.18400
C279        C  0.13270424  0.23254841  0.35075053     0.10000
S280        S  0.21767389  0.27770394  0.36549528    -0.33400
S281        S  0.09916627  0.21713320  0.34215956    -0.33400
H282        H  0.10931092  0.19558491  0.32247506     0.31400
H283        H  0.23352188  0.25153417  0.36587791     0.28000
H284        H  0.20137225  0.21624856  0.35786646     0.18600
H285        H  0.11548182  0.27628544  0.35278605     0.18600
C286        C  0.08763730  0.07457700  0.41197447    -0.07200
C287        C  0.10403943  0.09613475  0.42597304    -0.18400
C288        C  0.12333015  0.11345497  0.41008931     0.10000
C289        C  0.12540139  0.11042183  0.37887889    -0.07200
C290        C  0.11093639  0.08664633  0.36574592    -0.18400
C291        C  0.09189964  0.06938904  0.38150033     0.10000
S292        S  0.14560360  0.13850627  0.43032823    -0.33400
S293        S  0.07290317  0.04218947  0.36057762    -0.33400
H294        H  0.04685338  0.05335208  0.36921124     0.28000
H295        H  0.13647796  0.13087491  0.45891885     0.28000
H296        H  0.10174734  0.09936709  0.44956806     0.18600
H297        H  0.11419578  0.08084840  0.34289432     0.18600
C298        C  0.09272509  0.42301546  0.08170034    -0.07200
C299        C  0.10240500  0.43553956  0.10817784    -0.18400
C300        C  0.12220381  0.42103653  0.12587276     0.10000
C301        C  0.13075047  0.39186459  0.11848670    -0.07200
C302        C  0.12408677  0.38160044  0.08988728    -0.18400
C303        C  0.10571280  0.39688490  0.07141631     0.10000
S304        S  0.13762680  0.44118538  0.15616710    -0.33400
S305        S  0.10070286  0.38215465  0.03477431    -0.33400
H306        H  0.10181266  0.41009207  0.02090052     0.28000
H307        H  0.12172110  0.46717814  0.15350809     0.28000
H308        H  0.09435628  0.45679373  0.11513851     0.18600
H309        H  0.13355666  0.36165410  0.08133810     0.18600
C310        C  0.37999386  0.11800653  0.10902657    -0.07200
C311        C  0.37134899  0.09816821  0.08669603    -0.18400
C312        C  0.39038234  0.08090522  0.07077027     0.10000
C313        C  0.41892826  0.08369706  0.07662686    -0.07200
C314        C  0.42790340  0.10364820  0.09810455    -0.18400
C315        C  0.40905520  0.12078416  0.11432717     0.10000
S316        S  0.37671783  0.05576381  0.04335662    -0.33400
S317        S  0.42295825  0.14600502  0.14173034    -0.33400
H318        H  0.45048537  0.13566757  0.14129442     0.28000
H319        H  0.39939725  0.03628247  0.04201160     0.28000
H320        H  0.34976497  0.09534860  0.08137650     0.18600
H321        H  0.44996534  0.10578565  0.10210457     0.18600
C322        C  0.12194596  0.12418175  0.11172931    -0.07200
C323        C  0.10208524  0.13713180  0.09275026    -0.18400
C324        C  0.08271625  0.12015833  0.07731808     0.10000
C325        C  0.08333279  0.08898793  0.07952067    -0.07200
C326        C  0.10267247  0.07572482  0.09846215    -0.18400
C327        C  0.12163897  0.09273676  0.11481248     0.10000
S328        S  0.05629074  0.14009234  0.05724981    -0.33400
S329        S  0.14476188  0.07361409  0.13998699    -0.33400
H330        H  0.13380352  0.04495751  0.13638169     0.28000
H331        H  0.03435549  0.12230754  0.06773632     0.28000
H332        H  0.10004142  0.16072177  0.09053452     0.18600
H333        H  0.10284512  0.05181453  0.10046709     0.18600
C334        C  0.41539576  0.41501835  0.42430778    -0.07200
C335        C  0.40610262  0.38791551  0.43592724    -0.18400
C336        C  0.38699785  0.37018310  0.42072545     0.10000
C337        C  0.37882091  0.37797927  0.39147932    -0.07200
C338        C  0.38599976  0.40657468  0.38144630    -0.18400
C339        C  0.40360924  0.42513745  0.39746193     0.10000
S340        S  0.37258352  0.33975382  0.44149780    -0.33400
S341        S  0.40905575  0.46173069  0.38251626    -0.33400
H342        H  0.40465718  0.47600329  0.40978363     0.28000
H343        H  0.34560257  0.34337230  0.43047869     0.28000
H344        H  0.41333047  0.38063516  0.45742796     0.18600
H345        H  0.37728519  0.41515910  0.36112797     0.18600
C346        C  0.41748436  0.07491708  0.41014046    -0.07200
C347        C  0.40185540  0.09770194  0.42327471    -0.18400
C348        C  0.38204752  0.11406245  0.40712524     0.10000
C349        C  0.37825701  0.10842988  0.37646121    -0.07200
C350        C  0.39215759  0.08370924  0.36441632    -0.18400
C351        C  0.41197078  0.06770481  0.38029912     0.10000
S352        S  0.36131755  0.14134054  0.42641835    -0.33400
S353        S  0.43024042  0.03934832  0.36011786    -0.33400
H354        H  0.45652290  0.05129069  0.36656778     0.28000
H355        H  0.37474778  0.13929848  0.45393446     0.28000
H356        H  0.40507876  0.10259700  0.44643640     0.18600
H357        H  0.38796474  0.07615700  0.34231234     0.18600
C358        C  0.12383637  0.37706887  0.39036666    -0.07200
C359        C  0.13266061  0.39967524  0.40986023    -0.18400
C360        C  0.11398060  0.41487291  0.42806966     0.10000
C361        C  0.08559562  0.40802857  0.42684822    -0.07200
C362        C  0.07641651  0.38564994  0.40797083    -0.18400
C363        C  0.09496936  0.37011744  0.38976412     0.10000
S364        S  0.12753112  0.44330492  0.45204733    -0.33400
S365        S  0.08090751  0.34212223  0.36532506    -0.33400
H366        H  0.05382575  0.34164953  0.37696512     0.28000
H367        H  0.10778034  0.43948397  0.47467923     0.28000
H368        H  0.15404080  0.40624971  0.41137514     0.18600
H369        H  0.05439712  0.38097652  0.40691528     0.18600
C370        C  0.38233951  0.38341360  0.12351876    -0.07200
C371        C  0.37264663  0.39994066  0.09896581    -0.18400
C372        C  0.39037578  0.41758866  0.08187337     0.10000
C373        C  0.41871800  0.41882263  0.08881568    -0.07200
C374        C  0.42891977  0.40206810  0.11243713    -0.18400
C375        C  0.41135104  0.38399479  0.12948877     0.10000
S376        S  0.37563443  0.43747226  0.05096848    -0.33400
S377        S  0.42681174  0.36112088  0.15800573    -0.33400
H378        H  0.45471798  0.36815355  0.15213970     0.28000
H379        H  0.39438064  0.46134125  0.05138651     0.28000
H380        H  0.35136738  0.39899228  0.09193389     0.18600
H381        H  0.45096243  0.40265727  0.11700501     0.18600
N382        N  0.47022580  0.46725805  0.56007347    -0.07200
N383        N  0.45187244  0.46216033  0.58125540    -0.59300
N384        N  0.03305438  0.44402666  0.54077828    -0.06900
N385        N  0.05317650  0.42501791  0.54618032    -0.61500
N386        N  0.03410328  0.46623279  0.55952708    -0.06500
N387        N  0.05505148  0.46264930  0.57805016    -0.59300
N388        N  0.46985998  0.44562117  0.54059392    -0.06200
N389        N  0.45125460  0.42544764  0.54803381    -0.61800
C390        C  0.44002551  0.43623316  0.57318913     0.95000
C391        C  0.06699087  0.43686271  0.56931934     0.94700
N392        N  0.03265336  0.45619828  0.94791351    -0.07400
N393        N  0.05167641  0.44840336  0.92833863    -0.59900
N394        N  0.46910898  0.43971743  0.96848528    -0.05500
N395        N  0.44878566  0.42048871  0.96441807    -0.61200
N396        N  0.46997545  0.45878599  0.94647446    -0.07400
N397        N  0.45043154  0.45284609  0.92704004    -0.60200
N398        N  0.03194663  0.43704330  0.96989170    -0.05200
N399        N  0.05037773  0.41580990  0.96576412    -0.61300
Mn400      Mn  0.00087797  0.44113186  0.50641457     1.18400
C401        C  0.06266514  0.42338339  0.93997050     0.97000
C402        C  0.43706666  0.42912529  0.93853364     0.97700
N403        N  0.03339103  0.03805910  0.55235779    -0.07500
N404        N  0.05200278  0.04612029  0.57218133    -0.63800
N405        N  0.47003277  0.05521179  0.52977645    -0.06300
N406        N  0.45002229  0.07486211  0.53330773    -0.64400
N407        N  0.47020346  0.03620243  0.55192061    -0.07000
N408        N  0.45027215  0.04251894  0.57095154    -0.64000
N409        N  0.03328492  0.05675704  0.53001890    -0.05900
N410        N  0.05185899  0.07781031  0.53412919    -0.64700
Mn411      Mn  0.50221323  0.00146776  0.55543793     1.10700
C412        C  0.06335856  0.07100840  0.56054013     0.98300
C413        C  0.43764273  0.06633228  0.55878253     0.98300
N414        N  0.47236595  0.02885502  0.94282980    -0.07000
N415        N  0.45337562  0.03291718  0.92227015    -0.62300
N416        N  0.03514624  0.04955318  0.96214836    -0.06300
N417        N  0.05452439  0.06887062  0.95446515    -0.59100
N418        N  0.03516734  0.02700974  0.94375997    -0.07600
N419        N  0.05450606  0.03045836  0.92338806    -0.61900
N420        N  0.47231214  0.05108433  0.96157418    -0.06600
N421        N  0.45333593  0.07083412  0.95389728    -0.59100
Mn422      Mn  0.00172003  0.49215629  0.94481761     1.20200
Mn423      Mn  0.50415311  0.05396081  0.99656727     1.10100
Cl424      Cl  0.00203040  0.99806620  0.49979891    -0.87100
C425        C  0.44166080  0.05921895  0.92922473     0.95300
C426        C  0.06642979  0.05667631  0.93015342     0.95100
C427        C  0.14474515  0.12498366  0.85758514     0.85400
C428        C  0.13971811  0.12333593  0.82377858    -0.54900
C429        C  0.15681300  0.14098233  0.80733292     0.08300
C430        C  0.17690564  0.15951078  0.82603972     0.19300
C431        C  0.17596078  0.11885989  0.86143868    -0.55600
C432        C  0.19283406  0.13671562  0.84484322     0.08400
C433        C  0.14114428  0.15827031  0.86400617    -0.55100
C434        C  0.15796222  0.17634123  0.84763220     0.09000
H435        H  0.12296692  0.11140795  0.81328787     0.13500
H436        H  0.19058030  0.17434784  0.81287352    -0.00800
H437        H  0.18397335  0.10159981  0.87585814     0.13800
H438        H  0.12632785  0.16685257  0.87994263     0.13600
C439        C  0.14241256  0.35401820  0.87135716     0.85400
C440        C  0.14162793  0.32011174  0.87572338    -0.54900
C441        C  0.15841095  0.30462013  0.85687207     0.08300
C442        C  0.17480935  0.32452069  0.83532532     0.19300
C443        C  0.17362684  0.36157293  0.87430824    -0.55600
C444        C  0.19044948  0.34636094  0.85541772     0.08400
C445        C  0.13623103  0.35908061  0.83832549    -0.55100
C446        C  0.15276113  0.34344667  0.81946418     0.09000
H447        H  0.12866617  0.30924234  0.89216256     0.13500
H448        H  0.18849130  0.31206455  0.81997308    -0.00800
H449        H  0.18262382  0.37674717  0.89003435     0.13800
H450        H  0.12010033  0.37396391  0.83052156     0.13600
C451        C  0.14733247  0.37171332  0.64104069     0.85400
C452        C  0.14087132  0.37418686  0.67448814    -0.54900
C453        C  0.15711412  0.35659331  0.69201653     0.08300
C454        C  0.17747348  0.33714693  0.67457783     0.19300
C455        C  0.17880458  0.37688669  0.63810246    -0.55600
C456        C  0.19457734  0.35881855  0.65568528     0.08400
C457        C  0.14349272  0.33821181  0.63520751    -0.55100
C458        C  0.15918834  0.32029350  0.65270497     0.09000
H459        H  0.12412511  0.38743859  0.68352647     0.13500
H460        H  0.19024017  0.32224169  0.68861884    -0.00800
H461        H  0.18778642  0.39307807  0.62307262     0.13800
H462        H  0.12914762  0.32902335  0.61922547     0.13600
C463        C  0.14166506  0.14345550  0.62847387     0.85400
C464        C  0.14151334  0.17748181  0.62361416    -0.54900
C465        C  0.15881215  0.19268416  0.64197476     0.08300
C466        C  0.17469553  0.17282354  0.66369621     0.19300
C467        C  0.17249299  0.13507222  0.62545128    -0.55600
C468        C  0.18978445  0.15000888  0.64412086     0.08400
C469        C  0.13485026  0.13998595  0.66159233    -0.55100
C470        C  0.15204742  0.15521679  0.68005894     0.09000
H471        H  0.12896644  0.18948115  0.60788104     0.13500
H472        H  0.18864788  0.18535698  0.67858775    -0.00800
H473        H  0.17997715  0.11873473  0.60974312     0.13800
H474        H  0.11797099  0.12624535  0.66976258     0.13600
C475        C  0.36208631  0.12648549  0.85670746     0.85400
C476        C  0.36506836  0.16026282  0.86137858    -0.54900
C477        C  0.34700038  0.17731170  0.84519004     0.08300
C478        C  0.32799790  0.15871824  0.82521368     0.19300
C479        C  0.33116655  0.11976838  0.86231368    -0.55600
C480        C  0.31335330  0.13681933  0.84608794     0.08400
C481        C  0.36579625  0.12325451  0.82281234    -0.55100
C482        C  0.34803197  0.14001846  0.80656829     0.09000
H483        H  0.38045084  0.16984453  0.87602793     0.13500
H484        H  0.31295920  0.17176580  0.81211548    -0.00800
H485        H  0.32409369  0.10273769  0.87756435     0.13800
H486        H  0.38171373  0.11049562  0.81176962     0.13600
C487        C  0.35818218  0.13519283  0.62782655     0.85400
C488        C  0.36217384  0.12805305  0.66080130    -0.54900
C489        C  0.34575272  0.14413577  0.67921324     0.08300
C490        C  0.32661168  0.16614054  0.66330033     0.19300
C491        C  0.32660045  0.13050819  0.62301937    -0.55600
C492        C  0.31013428  0.14717384  0.64125474     0.08400
C493        C  0.36201822  0.16904052  0.62514080    -0.55100
C494        C  0.34574168  0.18518272  0.64383666     0.09000
H495        H  0.37679812  0.11164535  0.66894161     0.13500
H496        H  0.31370203  0.17946528  0.67869006    -0.00800
H497        H  0.31744346  0.11521587  0.60752929     0.13800
H498        H  0.37655185  0.17934082  0.60986705     0.13600
C499        C  0.36274379  0.36433888  0.64316629     0.85400
C500        C  0.36774287  0.33094912  0.63845630    -0.54900
C501        C  0.35117869  0.31297920  0.65524594     0.08300
C502        C  0.33056264  0.32990583  0.67489361     0.19300
C503        C  0.33125676  0.36838808  0.63730307    -0.55600
C504        C  0.31456456  0.35007322  0.65352209     0.08400
C505        C  0.36515998  0.36908543  0.67684346    -0.55100
C506        C  0.34836052  0.35111800  0.69332251     0.09000
H507        H  0.38265699  0.32232163  0.62263192     0.13500
H508        H  0.31707269  0.31524469  0.68850212    -0.00800
H509        H  0.32210184  0.38520663  0.62337419     0.13800
H510        H  0.37895497  0.38523416  0.68683060     0.13600
C511        C  0.35852130  0.35602461  0.87215095     0.85400
C512        C  0.36323598  0.36097841  0.83864792    -0.54900
C513        C  0.34604142  0.34503367  0.82097650     0.08300
C514        C  0.32557028  0.32537130  0.83807495     0.19300
C515        C  0.32750940  0.36229211  0.87704033    -0.55600
C516        C  0.31032995  0.34612266  0.85937910     0.08400
C517        C  0.36181695  0.32202671  0.87525707    -0.55100
C518        C  0.34391365  0.30588944  0.85807427     0.09000
H519        H  0.37933693  0.37506179  0.82938866     0.13500
H520        H  0.31117961  0.31288718  0.82356844    -0.00800
H521        H  0.31989114  0.37848768  0.89282023     0.13800
H522        H  0.37804093  0.31163326  0.88817018     0.13600
C523        C  0.34749498  0.34658473  0.78833443    -0.07200
C524        C  0.33196807  0.36848555  0.77385396    -0.18400
C525        C  0.33261753  0.37137943  0.74298823     0.10000
C526        C  0.34822728  0.35099363  0.72604136    -0.07200
C527        C  0.36365804  0.32904478  0.74055355    -0.18400
C528        C  0.36420977  0.32719477  0.77145502     0.10000
S529        S  0.31264260  0.40119952  0.72701844    -0.33400
S530        S  0.38713890  0.30001453  0.78757334    -0.33400
H531        H  0.39183650  0.31474841  0.81437753     0.28000
H532        H  0.32817647  0.40474324  0.70103008     0.28000
H533        H  0.31954409  0.38375273  0.78677363     0.18600
H534        H  0.37584448  0.31354765  0.72769699     0.18600
C535        C  0.34710144  0.21802616  0.64581658    -0.07200
C536        C  0.37270745  0.23158094  0.65173434    -0.18400
C537        C  0.37480714  0.26235032  0.65542440     0.10000
C538        C  0.35081799  0.28019815  0.65261121    -0.07200
C539        C  0.32534629  0.26664056  0.64639344    -0.18400
C540        C  0.32326161  0.23589437  0.64270965     0.10000
S541        S  0.40839494  0.27705494  0.66491357    -0.33400
S542        S  0.29041314  0.22013598  0.63216881    -0.33400
H543        H  0.27576448  0.24697225  0.62977552     0.28000
H544        H  0.39841524  0.30080055  0.68187654     0.28000
H545        H  0.39107725  0.21797625  0.65434733     0.18600
H546        H  0.30709951  0.28039336  0.64377732     0.18600
C547        C  0.34884807  0.14060539  0.77391162    -0.07200
C548        C  0.32931523  0.12345995  0.75871087    -0.18400
C549        C  0.32871651  0.12285081  0.72779770     0.10000
C550        C  0.34707242  0.14118479  0.71165724    -0.07200
C551        C  0.36729786  0.15746944  0.72673827    -0.18400
C552        C  0.36898351  0.15676574  0.75763095     0.10000
S553        S  0.30478169  0.09735860  0.71072770    -0.33400
S554        S  0.39756687  0.17677458  0.77409580    -0.33400
H555        H  0.38934451  0.17548450  0.80372796     0.28000
H556        H  0.31848573  0.09477225  0.68345234     0.28000
H557        H  0.31495916  0.10967203  0.77104059     0.18600
H558        H  0.38198782  0.17077343  0.71426754     0.18600
C559        C  0.34565437  0.21037121  0.84782787    -0.07200
C560        C  0.34866090  0.22297078  0.87609442    -0.18400
C561        C  0.34733672  0.25366099  0.88053191     0.10000
C562        C  0.34386162  0.27283685  0.85601266    -0.07200
C563        C  0.34016427  0.26022966  0.82800536    -0.18400
C564        C  0.34097539  0.22959981  0.82345080     0.10000
S565        S  0.34802081  0.26632338  0.91824575    -0.33400
S566        S  0.33757408  0.21664649  0.78585819    -0.33400
H567        H  0.33133125  0.24387913  0.77221615     0.28000
H568        H  0.32859758  0.28911750  0.91370461     0.28000
H569        H  0.35110699  0.20868779  0.89521359     0.18600
H570        H  0.33730223  0.27456426  0.80913556     0.18600
C571        C  0.22049368  0.14645998  0.64358242    -0.07200
C572        C  0.23432986  0.14657959  0.61619617    -0.18400
C573        C  0.26336494  0.14708083  0.61448524     0.10000
C574        C  0.27924152  0.14666383  0.64083872    -0.07200
C575        C  0.26528980  0.14654116  0.66807117    -0.18400
C576        C  0.23641698  0.14566236  0.66971703     0.10000
S577        S  0.27837436  0.15121829  0.57813129    -0.33400
S578        S  0.22137299  0.14150964  0.70584079    -0.33400
H579        H  0.20172481  0.12061970  0.69626462     0.28000
H580        H  0.30004636  0.17004079  0.58703281     0.28000
H581        H  0.22242974  0.14795015  0.59593082     0.18600
H582        H  0.27692752  0.14662154  0.68847289     0.18600
C583        C  0.15855241  0.28757862  0.65074762    -0.07200
C584        C  0.18380421  0.27245923  0.64787395    -0.18400
C585        C  0.18448154  0.24175332  0.64385586     0.10000
C586        C  0.15945369  0.22554113  0.64308130    -0.07200
C587        C  0.13418515  0.24074051  0.64587038    -0.18400
C588        C  0.13346962  0.27133724  0.65040626     0.10000
S589        S  0.21775018  0.22482521  0.63806187    -0.33400
S590        S  0.10006975  0.28782032  0.65771275    -0.33400
H591        H  0.11003431  0.30910403  0.67774683     0.28000
H592        H  0.20816478  0.20538687  0.61607627     0.28000
H593        H  0.20312141  0.28478137  0.64779825     0.18600
H594        H  0.11486424  0.22844022  0.64611378     0.18600
C595        C  0.28378441  0.35200342  0.65306354    -0.07200
C596        C  0.26991522  0.35474764  0.68013038    -0.18400
C597        C  0.24113629  0.35859025  0.68146344     0.10000
C598        C  0.22543094  0.35825497  0.65514329    -0.07200
C599        C  0.23922946  0.35515170  0.62792412    -0.18400
C600        C  0.26824366  0.35205741  0.62657418     0.10000
S601        S  0.22512911  0.36559940  0.71684372    -0.33400
S602        S  0.28488100  0.34600772  0.59124054    -0.33400
H603        H  0.26108117  0.34975382  0.57366834     0.28000
H604        H  0.24972903  0.36820523  0.73332345     0.28000
H605        H  0.28180447  0.35441706  0.70035927     0.18600
H606        H  0.22711845  0.35428411  0.60780214     0.18600
C607        C  0.15101791  0.34658269  0.78672518    -0.07200
C608        C  0.15249441  0.37508283  0.77424704    -0.18400
C609        C  0.15464312  0.37920137  0.74359665     0.10000
C610        C  0.15421311  0.35429111  0.72464887    -0.07200
C611        C  0.15175794  0.32590745  0.73709792    -0.18400
C612        C  0.14985800  0.32184677  0.76770497     0.10000
S613        S  0.16006340  0.41655683  0.73058788    -0.33400
S614        S  0.14421601  0.28475282  0.78095825    -0.33400
H615        H  0.12484467  0.29372777  0.80243705     0.28000
H616        H  0.17743755  0.40899738  0.70677014     0.28000
H617        H  0.15355534  0.39425037  0.78860108     0.18600
H618        H  0.15085462  0.30668084  0.72279436     0.18600
C619        C  0.22116396  0.34899119  0.85648944    -0.07200
C620        C  0.23466011  0.34481104  0.88371096    -0.18400
C621        C  0.26373737  0.34447790  0.88558281     0.10000
C622        C  0.27966879  0.34851262  0.85963637    -0.07200
C623        C  0.26615613  0.35337260  0.83263333    -0.18400
C624        C  0.23723687  0.35418713  0.83092547     0.10000
S625        S  0.28006198  0.33649303  0.92064182    -0.33400
S626        S  0.22209007  0.36359176  0.79590684    -0.33400
H627        H  0.20182811  0.38209495  0.80852196     0.28000
H628        H  0.25582876  0.33761622  0.93799786     0.28000
H629        H  0.22232781  0.34056229  0.90331121     0.18600
H630        H  0.27826702  0.35697148  0.81272432     0.18600
C631        C  0.15461220  0.14393669  0.77468809    -0.07200
C632        C  0.15496833  0.17252149  0.76244562    -0.18400
C633        C  0.15283251  0.17700694  0.73193492     0.10000
C634        C  0.15062534  0.15238963  0.71281279    -0.07200
C635        C  0.14955508  0.12381353  0.72511645    -0.18400
C636        C  0.15205423  0.11924629  0.75560017     0.10000
S637        S  0.15131079  0.21470913  0.71910809    -0.33400
S638        S  0.15401957  0.08130378  0.76811125    -0.33400
H639        H  0.17320607  0.08666158  0.79086350     0.28000
H640        H  0.13028151  0.20857661  0.69852809     0.28000
H641        H  0.15627410  0.19165111  0.77683231     0.18600
H642        H  0.14842476  0.10470534  0.71068351     0.18600
C643        C  0.22369870  0.13440631  0.84511050    -0.07200
C644        C  0.23774615  0.13453711  0.87232333    -0.18400
C645        C  0.26685961  0.13494275  0.87362130     0.10000
C646        C  0.28251662  0.13448175  0.84710643    -0.07200
C647        C  0.26839640  0.13328239  0.82007130    -0.18400
C648        C  0.23937777  0.13297749  0.81872526     0.10000
S649        S  0.28250203  0.13819913  0.90960899    -0.33400
S650        S  0.22295257  0.12917043  0.78314980    -0.33400
H651        H  0.24727834  0.12625968  0.76616316     0.28000
H652        H  0.30317299  0.15827187  0.90049687     0.28000
H653        H  0.22593953  0.13564792  0.89271744     0.18600
H654        H  0.28025370  0.13260987  0.79978589     0.18600
C655        C  0.15750219  0.20919668  0.84978520    -0.07200
C656        C  0.18275091  0.22414486  0.85360688    -0.18400
C657        C  0.18371226  0.25511879  0.85658482     0.10000
C658        C  0.15881343  0.27162621  0.85580090    -0.07200
C659        C  0.13352118  0.25655920  0.85245368    -0.18400
C660        C  0.13264448  0.22581033  0.84857836     0.10000
S661        S  0.21665027  0.27294981  0.86307450    -0.33400
S662        S  0.09941915  0.20956685  0.84006531    -0.33400
H663        H  0.10998431  0.18824377  0.82038502     0.31400
H664        H  0.23292563  0.24709818  0.86404494     0.28000
H665        H  0.20173866  0.21136958  0.85470261     0.18600
H666        H  0.11434775  0.26905987  0.85135216     0.18600
C667        C  0.08772121  0.07174730  0.91163410    -0.07200
C668        C  0.10546912  0.09238803  0.92499483    -0.18400
C669        C  0.12511778  0.10848821  0.90843053     0.10000
C670        C  0.12644738  0.10493456  0.87720902    -0.07200
C671        C  0.11027906  0.08220424  0.86456945    -0.18400
C672        C  0.09076046  0.06625750  0.88101450     0.10000
S673        S  0.14874361  0.13276146  0.92787257    -0.33400
S674        S  0.06950631  0.04045952  0.86075536    -0.33400
H675        H  0.04442302  0.05247280  0.87129465     0.28000
H676        H  0.13551796  0.13152966  0.95560887     0.28000
H677        H  0.10407245  0.09570729  0.94865535     0.18600
H678        H  0.11238598  0.07633378  0.84160284     0.18600
C679        C  0.09071080  0.42230333  0.58477120    -0.07200
C680        C  0.10087002  0.43498159  0.61098437    -0.18400
C681        C  0.12116557  0.42070360  0.62821489     0.10000
C682        C  0.12995584  0.39171786  0.62050649    -0.07200
C683        C  0.12280740  0.38136482  0.59212514    -0.18400
C684        C  0.10340060  0.39603124  0.57428668     0.10000
S685        S  0.13710572  0.44100372  0.65812257    -0.33400
S686        S  0.09596650  0.38089880  0.53807905    -0.33400
H687        H  0.11337649  0.35594480  0.53966969     0.28000
H688        H  0.12068437  0.46668581  0.65609230     0.28000
H689        H  0.09292445  0.45626370  0.61799898     0.18600
H690        H  0.13255907  0.36161315  0.58361111     0.18600
C691        C  0.37876789  0.11789106  0.60837446    -0.07200
C692        C  0.36959286  0.09784999  0.58643877    -0.18400
C693        C  0.38826921  0.08126374  0.56943774     0.10000
C694        C  0.41690879  0.08425957  0.57436164    -0.07200
C695        C  0.42641148  0.10426235  0.59553073    -0.18400
C696        C  0.40794250  0.12122933  0.61240619     0.10000
S697        S  0.37415485  0.05578759  0.54265178    -0.33400
S698        S  0.42242978  0.14653652  0.63937205    -0.33400
H699        H  0.45043659  0.14366661  0.63105843     0.28000
H700        H  0.39661794  0.05672833  0.52282894     0.28000
H701        H  0.34791499  0.09452168  0.58198938     0.18600
H702        H  0.44855752  0.10627946  0.59903390     0.18600
C703        C  0.12248061  0.12430877  0.60908961    -0.07200
C704        C  0.10467874  0.13735253  0.58799823    -0.18400
C705        C  0.08520481  0.12079021  0.57228140     0.10000
C706        C  0.08377204  0.08979942  0.57627790    -0.07200
C707        C  0.10189147  0.07633112  0.59643376    -0.18400
C708        C  0.12106975  0.09297628  0.61285376     0.10000
S709        S  0.06142720  0.14128304  0.54925436    -0.33400
S710        S  0.14326503  0.07352477  0.63873786    -0.33400
H711        H  0.13155384  0.04517414  0.63542608     0.28000
H712        H  0.03771049  0.12705913  0.56070428     0.28000
H713        H  0.10460681  0.16077610  0.58386718     0.18600
H714        H  0.10092900  0.05253776  0.59936361     0.18600
C715        C  0.41441807  0.41273229  0.92333513    -0.07200
C716        C  0.40542296  0.38564346  0.93532364    -0.18400
C717        C  0.38593501  0.36783846  0.92077128     0.10000
C718        C  0.37692323  0.37563460  0.89183321    -0.07200
C719        C  0.38373408  0.40427581  0.88157362    -0.18400
C720        C  0.40193077  0.42281224  0.89685485     0.10000
S721        S  0.37200146  0.33749195  0.94206304    -0.33400
S722        S  0.40739745  0.45922866  0.88139562    -0.33400
H723        H  0.40366601  0.47379772  0.90861430     0.28000
H724        H  0.34486956  0.34061658  0.93125210     0.28000
H725        H  0.41321531  0.37841297  0.95661427     0.18600
H726        H  0.37445627  0.41279129  0.86150544     0.18600
C727        C  0.42060010  0.07473436  0.91072310    -0.07200
C728        C  0.40344793  0.09613011  0.92390457    -0.18400
C729        C  0.38360769  0.11203991  0.90741158     0.10000
C730        C  0.38148628  0.10759002  0.87634022    -0.07200
C731        C  0.39741348  0.08449538  0.86392544    -0.18400
C732        C  0.41703326  0.06870439  0.88028979     0.10000
S733        S  0.36082621  0.13731692  0.92678397    -0.33400
S734        S  0.43754980  0.04211710  0.86011133    -0.33400
H735        H  0.46297212  0.05400800  0.86974485     0.28000
H736        H  0.37005543  0.13104685  0.95561737     0.28000
H737        H  0.40545480  0.10020387  0.94738616     0.18600
H738        H  0.39490623  0.07794873  0.84122640     0.18600
C739        C  0.12174415  0.37088852  0.89127982    -0.07200
C740        C  0.13062935  0.39408209  0.91007565    -0.18400
C741        C  0.11193115  0.41081496  0.92684333     0.10000
C742        C  0.08339721  0.40493080  0.92487847    -0.07200
C743        C  0.07414219  0.38169057  0.90706410    -0.18400
C744        C  0.09276298  0.36462127  0.89031555     0.10000
S745        S  0.12584692  0.44005719  0.94965612    -0.33400
S746        S  0.07860783  0.33579272  0.86697703    -0.33400
H747        H  0.05199717  0.33494268  0.87980127     0.28000
H748        H  0.10456873  0.44013780  0.97093825     0.28000
H749        H  0.15206804  0.40026044  0.91188902     0.18600
H750        H  0.05205950  0.37746501  0.90568308     0.18600
C751        C  0.38302659  0.38368972  0.62501679    -0.07200
C752        C  0.37346409  0.40214915  0.60180909    -0.18400
C753        C  0.39144822  0.42015035  0.58538770     0.10000
C754        C  0.41999186  0.41969955  0.59143452    -0.07200
C755        C  0.43006112  0.40114530  0.61377260    -0.18400
C756        C  0.41215766  0.38297390  0.63040261     0.10000
S757        S  0.37671916  0.44270462  0.55636565    -0.33400
S758        S  0.42727473  0.35852244  0.65779725    -0.33400
H759        H  0.45528445  0.36533096  0.65224648     0.28000
H760        H  0.39613848  0.46587881  0.55817385     0.28000
H761        H  0.35201585  0.40271955  0.59539154     0.18600
H762        H  0.45220548  0.40054398  0.61774381     0.18600
N763        N  0.47225541  0.96656662  0.05944247    -0.07200
N764        N  0.45344205  0.96231290  0.08036352    -0.59300
N765        N  0.03445351  0.94418068  0.03989822    -0.06900
N766        N  0.05509961  0.92575410  0.04503095    -0.61500
N767        N  0.03512910  0.96638235  0.05869384    -0.06500
N768        N  0.05643002  0.96343808  0.07687358    -0.59300
N769        N  0.47108052  0.94510546  0.03980329    -0.06200
N770        N  0.45137337  0.92598603  0.04681803    -0.61800
C771        C  0.44036264  0.93717396  0.07192788     0.95000
C772        C  0.06893002  0.93804066  0.06792635     0.94700
N773        N  0.03434766  0.95843213  0.44767334    -0.07400
N774        N  0.05394837  0.95113009  0.42855785    -0.59900
N775        N  0.46872868  0.94052893  0.46853576    -0.05500
N776        N  0.44826655  0.92142141  0.46470846    -0.61200
N777        N  0.46950548  0.95956547  0.44647281    -0.07400
N778        N  0.44970837  0.95373528  0.42726277    -0.60200
N779        N  0.03359774  0.93928473  0.46965518    -0.05200
N780        N  0.05257317  0.91851276  0.46593062    -0.61300
Mn781      Mn  0.00217248  0.94045092  0.00572618     1.18400
C782        C  0.06529402  0.92642556  0.44045978     0.97000
C783        C  0.43631481  0.93011632  0.43897030     0.97700
N784        N  0.03496306  0.53555259  0.05318039    -0.07500
N785        N  0.05348829  0.54370216  0.07308064    -0.63800
N786        N  0.46870606  0.55456194  0.02984309    -0.06300
N787        N  0.44872812  0.57429096  0.03347960    -0.64400
N788        N  0.46892121  0.53559081  0.05203159    -0.07000
N789        N  0.44921734  0.54212739  0.07124984    -0.64000
N790        N  0.03483426  0.55430295  0.03087330    -0.05900
N791        N  0.05333747  0.57538326  0.03505286    -0.64700
Mn792      Mn  0.50104342  0.50096448  0.05580933     1.10700
C793        C  0.06479542  0.56865391  0.06148068     0.98300
C794        C  0.43654887  0.56595672  0.05916162     0.98300
N795        N  0.47085503  0.53011882  0.44327012    -0.07000
N796        N  0.45181238  0.53396158  0.42271839    -0.62300
N797        N  0.03538263  0.54986043  0.46255361    -0.06300
N798        N  0.05504153  0.56896491  0.45518759    -0.59100
N799        N  0.03547895  0.52727233  0.44426564    -0.07600
N800        N  0.05513474  0.53049293  0.42419494    -0.61900
N801        N  0.47058364  0.55234619  0.46197001    -0.06600
N802        N  0.45140137  0.57185512  0.45435443    -0.59100
Mn803      Mn  0.00269304  0.99349657  0.44371894     1.20200
Mn804      Mn  0.50201537  0.55527492  0.49717689     1.10100
Cl805      Cl  0.00214248  0.49650599  0.00084422    -0.87100
C806        C  0.43978354  0.56010755  0.42972484     0.95300
C807        C  0.06721255  0.55660780  0.43111686     0.95100
C808        C  0.14425844  0.62658583  0.35879199     0.85400
C809        C  0.13864671  0.62539428  0.32506040    -0.54900
C810        C  0.15564512  0.64303330  0.30843948     0.08300
C811        C  0.17607394  0.66128386  0.32702611     0.19300
C812        C  0.17547104  0.62033433  0.36208720    -0.55600
C813        C  0.19205693  0.63837018  0.34547367     0.08400
C814        C  0.14088261  0.65981209  0.36565903    -0.55100
C815        C  0.15757708  0.67795752  0.34917564     0.09000
H816        H  0.12161124  0.61364773  0.31486637     0.13500
H817        H  0.18977653  0.67603942  0.31378272    -0.00800
H818        H  0.18372859  0.60310529  0.37638931     0.13800
H819        H  0.12640529  0.66829764  0.38199501     0.13600
C820        C  0.14417965  0.85577156  0.37192094     0.85400
C821        C  0.14348591  0.82201350  0.37726102    -0.54900
C822        C  0.15971912  0.80600128  0.35834464     0.08300
C823        C  0.17573193  0.82524143  0.33590795     0.19300
C824        C  0.17546732  0.86324272  0.37404400    -0.55600
C825        C  0.19186891  0.84745318  0.35513932     0.08400
C826        C  0.13730769  0.85996256  0.33894600    -0.55100
C827        C  0.15345284  0.84391862  0.32005207     0.09000
H828        H  0.13095352  0.81158298  0.39434784     0.13500
H829        H  0.18906770  0.81226370  0.32064294    -0.00800
H830        H  0.18473252  0.87845446  0.38959458     0.13800
H831        H  0.12106182  0.87473033  0.33119356     0.13600
C832        C  0.14702426  0.87197818  0.14116646     0.85400
C833        C  0.14039766  0.87443053  0.17460112    -0.54900
C834        C  0.15643935  0.85661533  0.19221982     0.08300
C835        C  0.17681186  0.83710389  0.17473841     0.19300
C836        C  0.17847537  0.87697883  0.13843170    -0.55600
C837        C  0.19409050  0.85872850  0.15591216     0.08400
C838        C  0.14304056  0.83853931  0.13518758    -0.55100
C839        C  0.15854780  0.82044476  0.15266779     0.09000
H840        H  0.12378484  0.88796351  0.18350794     0.13500
H841        H  0.18948410  0.82206231  0.18872625    -0.00800
H842        H  0.18759599  0.89309769  0.12341399     0.13800
H843        H  0.12881004  0.82949676  0.11901961     0.13600
C844        C  0.14120073  0.64337193  0.12956233     0.85400
C845        C  0.14122483  0.67723774  0.12368480    -0.54900
C846        C  0.15853882  0.69289095  0.14167476     0.08300
C847        C  0.17425846  0.67358526  0.16405444     0.19300
C848        C  0.17197511  0.63471450  0.12696382    -0.55600
C849        C  0.18929894  0.65016978  0.14515657     0.08400
C850        C  0.13418659  0.64100084  0.16270029    -0.55100
C851        C  0.15145336  0.65654716  0.18084266     0.09000
H852        H  0.12864493  0.68882417  0.10766714     0.13500
H853        H  0.18825180  0.68645904  0.17861002    -0.00800
H854        H  0.17941907  0.61790067  0.11174023     0.13800
H855        H  0.11717309  0.62762311  0.17115112     0.13600
C856        C  0.36035606  0.62732079  0.35738922     0.85400
C857        C  0.36445935  0.66109452  0.36064642    -0.54900
C858        C  0.34680579  0.67804913  0.34391768     0.08300
C859        C  0.32728358  0.65943492  0.32455154     0.19300
C860        C  0.32929727  0.62204660  0.36337567    -0.55600
C861        C  0.31208960  0.63890500  0.34627355     0.08400
C862        C  0.36398370  0.62260697  0.32365139    -0.55100
C863        C  0.34675343  0.63933226  0.30670607     0.09000
H864        H  0.38013907  0.67082570  0.37482769     0.13500
H865        H  0.31266995  0.67252497  0.31088353    -0.00800
H866        H  0.32163478  0.60618456  0.37954436     0.13800
H867        H  0.37978837  0.60906125  0.31332101     0.13600
C868        C  0.35794363  0.63624404  0.12817762     0.85400
C869        C  0.36112910  0.62858062  0.16111800    -0.54900
C870        C  0.34482152  0.64489008  0.17941275     0.08300
C871        C  0.32627860  0.66745659  0.16331347     0.19300
C872        C  0.32639948  0.63196496  0.12289304    -0.55600
C873        C  0.30979511  0.64880963  0.14086306     0.08400
C874        C  0.36248565  0.67001060  0.12600183    -0.55100
C875        C  0.34602676  0.68638284  0.14433169     0.09000
H876        H  0.37512317  0.61161120  0.16936967     0.13500
H877        H  0.31340511  0.68091197  0.17860735    -0.00800
H878        H  0.31749014  0.61600826  0.10788363     0.13800
H879        H  0.37751996  0.68008182  0.11113373     0.13600
C880        C  0.36216651  0.86617235  0.14181161     0.85400
C881        C  0.36822072  0.83284313  0.13801424    -0.54900
C882        C  0.35158132  0.81468082  0.15454212     0.08300
C883        C  0.33021435  0.83143030  0.17336659     0.19300
C884        C  0.33074808  0.86918937  0.13493203    -0.55600
C885        C  0.31411888  0.85080383  0.15132478     0.08400
C886        C  0.36335865  0.87189954  0.17542553    -0.55100
C887        C  0.34704106  0.85343790  0.19180178     0.09000
H888        H  0.38366127  0.82441327  0.12266982     0.13500
H889        H  0.31686389  0.81665105  0.18700337    -0.00800
H890        H  0.32180498  0.88582943  0.12055481     0.13800
H891        H  0.37617413  0.88886685  0.18552590     0.13600
C892        C  0.35997986  0.85628032  0.37068490     0.85400
C893        C  0.36475677  0.86202725  0.33731803    -0.54900
C894        C  0.34772281  0.84622631  0.31926840     0.08300
C895        C  0.32735744  0.82603061  0.33587465     0.19300
C896        C  0.32891752  0.86218795  0.37553299    -0.55600
C897        C  0.31188107  0.84619004  0.35756170     0.08400
C898        C  0.36348571  0.82224678  0.37311582    -0.55100
C899        C  0.34571758  0.80640184  0.35556443     0.09000
H900        H  0.38057637  0.87675877  0.32851315     0.13500
H901        H  0.31322087  0.81355201  0.32106824    -0.00800
H902        H  0.32116623  0.87806254  0.39155951     0.13800
H903        H  0.37956963  0.81153327  0.38596009     0.13600
C904        C  0.34879136  0.84854349  0.28667585    -0.07200
C905        C  0.33231244  0.87008062  0.27286372    -0.18400
C906        C  0.33171997  0.87298460  0.24199612     0.10000
C907        C  0.34724929  0.85301275  0.22445949    -0.07200
C908        C  0.36372825  0.83152035  0.23832238    -0.18400
C909        C  0.36533597  0.82959522  0.26914873     0.10000
S910        S  0.31067598  0.90261595  0.22713039    -0.33400
S911        S  0.38927351  0.80284061  0.28429232    -0.33400
H912        H  0.39382273  0.81697630  0.31144180     0.28000
H913        H  0.31714254  0.89953631  0.19708734     0.28000
H914        H  0.31992808  0.88492129  0.28631326     0.18600
H915        H  0.37593451  0.81645640  0.22496794     0.18600
C916        C  0.34750983  0.71937217  0.14599296    -0.07200
C917        C  0.37328630  0.73308802  0.15087632    -0.18400
C918        C  0.37547905  0.76396673  0.15419912     0.10000
C919        C  0.35138838  0.78180092  0.15211375    -0.07200
C920        C  0.32576630  0.76804935  0.14706072    -0.18400
C921        C  0.32364106  0.73738159  0.14368521     0.10000
S922        S  0.40932353  0.77881822  0.16239064    -0.33400
S923        S  0.29017980  0.72297738  0.13412514    -0.33400
H924        H  0.30101565  0.70609578  0.11085642     0.28000
H925        H  0.39984801  0.80261281  0.17963024     0.28000
H926        H  0.39175286  0.71955046  0.15297662     0.18600
H927        H  0.30722705  0.78145493  0.14473606     0.18600
C928        C  0.34806188  0.63941037  0.27405823    -0.07200
C929        C  0.32792292  0.62329003  0.25863537    -0.18400
C930        C  0.32717587  0.62332546  0.22771046     0.10000
C931        C  0.34590823  0.64147424  0.21184634    -0.07200
C932        C  0.36696163  0.65631959  0.22712119    -0.18400
C933        C  0.36884702  0.65477640  0.25796528     0.10000
S934        S  0.30273951  0.59867502  0.21024337    -0.33400
S935        S  0.39858577  0.67257166  0.27461754    -0.33400
H936        H  0.38949770  0.67318669  0.30396220     0.28000
H937        H  0.31676754  0.59579147  0.18317887     0.28000
H938        H  0.31320943  0.60977828  0.27075158     0.18600
H939        H  0.38217790  0.66910623  0.21483383     0.18600
C940        C  0.34593544  0.71104393  0.34609727    -0.07200
C941        C  0.34769399  0.72378708  0.37438703    -0.18400
C942        C  0.34681665  0.75449730  0.37843519     0.10000
C943        C  0.34528589  0.77345126  0.35355215    -0.07200
C944        C  0.34273135  0.76074016  0.32544561    -0.18400
C945        C  0.34295756  0.73002809  0.32128704     0.10000
S946        S  0.34529617  0.76758241  0.41597267    -0.33400
S947        S  0.34030685  0.71638217  0.28390668    -0.33400
H948        H  0.34114869  0.74378787  0.26904544     0.28000
H949        H  0.32682854  0.79085136  0.40973385     0.28000
H950        H  0.34875610  0.70961150  0.39373868     0.18600
H951        H  0.34077724  0.77502576  0.30638810     0.18600
C952        C  0.22002584  0.64684532  0.14434630    -0.07200
C953        C  0.23353201  0.64612485  0.11679469    -0.18400
C954        C  0.26254391  0.64673236  0.11454369     0.10000
C955        C  0.27881633  0.64786540  0.14068005    -0.07200
C956        C  0.26509475  0.64843120  0.16811561    -0.18400
C957        C  0.23624749  0.64699111  0.17024705     0.10000
S958        S  0.27656261  0.64788531  0.07746759    -0.33400
S959        S  0.22164524  0.64328813  0.20670246    -0.33400
H960        H  0.20150665  0.62263120  0.19776127     0.28000
H961        H  0.30044072  0.66439969  0.08374282     0.28000
H962        H  0.22133945  0.64646324  0.09668509     0.18600
H963        H  0.27689440  0.64930075  0.18838363     0.18600
C964        C  0.15799782  0.78775583  0.15016482    -0.07200
C965        C  0.18330761  0.77273751  0.14722196    -0.18400
C966        C  0.18409063  0.74206771  0.14288679     0.10000
C967        C  0.15910811  0.72576493  0.14210762    -0.07200
C968        C  0.13378465  0.74089938  0.14458071    -0.18400
C969        C  0.13294323  0.77147561  0.14918129     0.10000
S970        S  0.21741314  0.72533115  0.13666883    -0.33400
S971        S  0.09935085  0.78783952  0.15571614    -0.33400
H972        H  0.10879981  0.80890195  0.17625908     0.28000
H973        H  0.20761680  0.70522958  0.11538788     0.28000
H974        H  0.20258926  0.78512056  0.14735299     0.18600
H975        H  0.11448996  0.72855163  0.14461891     0.18600
C976        C  0.28329825  0.85252739  0.15141200    -0.07200
C977        C  0.26985457  0.85499541  0.17879803    -0.18400
C978        C  0.24103658  0.85816903  0.18079783     0.10000
C979        C  0.22490710  0.85780757  0.15481989    -0.07200
C980        C  0.23823545  0.85479606  0.12730531    -0.18400
C981        C  0.26725221  0.85204757  0.12531174     0.10000
S982        S  0.22546921  0.86455165  0.21652645    -0.33400
S983        S  0.28329777  0.84586348  0.08971191    -0.33400
H984        H  0.25867375  0.84497254  0.07308430     0.28000
H985        H  0.24997037  0.86273550  0.23327939     0.28000
H986        H  0.28210688  0.85498719  0.19876761     0.18600
H987        H  0.22576243  0.85388272  0.10743987     0.18600
C988        C  0.15127956  0.84679113  0.28725098    -0.07200
C989        C  0.15201787  0.87525200  0.27459193    -0.18400
C990        C  0.15364055  0.87930027  0.24388204     0.10000
C991        C  0.15357937  0.85434013  0.22497158    -0.07200
C992        C  0.15174967  0.82595481  0.23762517    -0.18400
C993        C  0.15029477  0.82197226  0.26831887     0.10000
S994        S  0.15798285  0.91672979  0.23071615    -0.33400
S995        S  0.14545769  0.78484397  0.28185454    -0.33400
H996        H  0.12619188  0.79358536  0.30353087     0.28000
H997        H  0.17635108  0.90948058  0.20764690     0.28000
H998        H  0.15292172  0.89451316  0.28883461     0.18600
H999        H  0.15103984  0.80664480  0.22342531     0.18600
C1000       C  0.22263456  0.84948245  0.35568847    -0.07200
C1001       C  0.23640802  0.84584639  0.38281343    -0.18400
C1002       C  0.26548952  0.84496141  0.38429129     0.10000
C1003       C  0.28118236  0.84820091  0.35804384    -0.07200
C1004       C  0.26738521  0.85223071  0.33106522    -0.18400
C1005       C  0.23845724  0.85331900  0.32971553     0.10000
S1006       S  0.28204986  0.83737011  0.41933052    -0.33400
S1007       S  0.22298263  0.86129070  0.29451638    -0.33400
H1008       H  0.20305361  0.88062547  0.30646274     0.28000
H1009       H  0.25772640  0.83560687  0.43648268     0.28000
H1010       H  0.22424671  0.84249464  0.40269969     0.18600
H1011       H  0.27926891  0.85507596  0.31088276     0.18600
C1012       C  0.15341285  0.64592082  0.27572125    -0.07200
C1013       C  0.15452765  0.67443167  0.26324737    -0.18400
C1014       C  0.15265594  0.67879530  0.23264921     0.10000
C1015       C  0.15005170  0.65411097  0.21366841    -0.07200
C1016       C  0.14822066  0.62567794  0.22619193    -0.18400
C1017       C  0.15026133  0.62121483  0.25672125     0.10000
S1018       S  0.15197367  0.71643932  0.21950300    -0.33400
S1019       S  0.15063048  0.58321991  0.26929375    -0.33400
H1020       H  0.16959943  0.58761779  0.29242462     0.28000
H1021       H  0.13120985  0.71063625  0.19852754     0.28000
H1022       H  0.15621298  0.69361825  0.27751049     0.18600
H1023       H  0.14669333  0.60649701  0.21190025     0.18600
C1024       C  0.22277479  0.63664512  0.34587378    -0.07200
C1025       C  0.23683937  0.64150265  0.37259368    -0.18400
C1026       C  0.26591643  0.64244078  0.37358268     0.10000
C1027       C  0.28135838  0.63748196  0.34744596    -0.07200
C1028       C  0.26721847  0.63218842  0.32094106    -0.18400
C1029       C  0.23820586  0.63158930  0.31984417     0.10000
S1030       S  0.28188255  0.65198154  0.40829851    -0.33400
S1031       S  0.22129779  0.62322314  0.28530103    -0.33400
H1032       H  0.24544680  0.61966483  0.26814600     0.28000
H1033       H  0.30362727  0.66867198  0.39583776     0.28000
H1034       H  0.22505553  0.64579595  0.39257366     0.18600
H1035       H  0.27902889  0.62852481  0.30097722     0.18600
C1036       C  0.15756901  0.71072280  0.35190528    -0.07200
C1037       C  0.18299624  0.72523892  0.35611722    -0.18400
C1038       C  0.18432614  0.75618396  0.35918931     0.10000
C1039       C  0.15968516  0.77304934  0.35787291    -0.07200
C1040       C  0.13420721  0.75839206  0.35449775    -0.18400
C1041       C  0.13292917  0.72767038  0.35072707     0.10000
S1042       S  0.21734369  0.77357549  0.36629591    -0.33400
S1043       S  0.09948146  0.71187226  0.34240336    -0.33400
H1044       H  0.10966434  0.69057934  0.32246759     0.31400
H1045       H  0.23250448  0.74737173  0.37111602     0.28000
H1046       H  0.20182280  0.71219023  0.35727807     0.18600
H1047       H  0.11521817  0.77119507  0.35324088     0.18600
C1048       C  0.08868306  0.57166767  0.41279735    -0.07200
C1049       C  0.10598490  0.59272826  0.42621058    -0.18400
C1050       C  0.12538717  0.60921492  0.40969522     0.10000
C1051       C  0.12639781  0.60614626  0.37842040    -0.07200
C1052       C  0.11097687  0.58286254  0.36575653    -0.18400
C1053       C  0.09213268  0.56605266  0.38224246     0.10000
S1054       S  0.14898800  0.63344216  0.42921744    -0.33400
S1055       S  0.07243495  0.53876993  0.36216759    -0.33400
H1056       H  0.04668273  0.55049212  0.37105431     0.28000
H1057       H  0.14263155  0.62352032  0.45796340     0.28000
H1058       H  0.10432826  0.59623389  0.44982975     0.18600
H1059       H  0.11333766  0.57712902  0.34276409     0.18600
C1060       C  0.09282490  0.92385694  0.08333522    -0.07200
C1061       C  0.10292674  0.93651860  0.10958749    -0.18400
C1062       C  0.12243162  0.92165224  0.12740114     0.10000
C1063       C  0.13014619  0.89213787  0.12035803    -0.07200
C1064       C  0.12323215  0.88178779  0.09189824    -0.18400
C1065       C  0.10509504  0.89719435  0.07339639     0.10000
S1066       S  0.13831658  0.94155269  0.15756820    -0.33400
S1067       S  0.09926321  0.88154166  0.03727172    -0.33400
H1068       H  0.10184772  0.90890717  0.02249661     0.28000
H1069       H  0.12770701  0.96972091  0.15045349     0.28000
H1070       H  0.09534943  0.95803420  0.11637764     0.18600
H1071       H  0.13234274  0.86163969  0.08340189     0.18600
C1072       C  0.37847384  0.61887097  0.10870376    -0.07200
C1073       C  0.36938392  0.60207095  0.08418335    -0.18400
C1074       C  0.38774989  0.58466562  0.06755483     0.10000
C1075       C  0.41604269  0.58400663  0.07511455    -0.07200
C1076       C  0.42557896  0.60149731  0.09840947    -0.18400
C1077       C  0.40745889  0.61928589  0.11488999     0.10000
S1078       S  0.37373499  0.56388279  0.03695509    -0.33400
S1079       S  0.42219621  0.64275320  0.14331143    -0.33400
H1080       H  0.44913921  0.63079012  0.14297921     0.28000
H1081       H  0.39321753  0.54073035  0.03762020     0.28000
H1082       H  0.34801593  0.60226425  0.07729091     0.18600
H1083       H  0.44755317  0.60147138  0.10338406     0.18600
C1084       C  0.12217666  0.62364000  0.11060316    -0.07200
C1085       C  0.10502901  0.63596841  0.08852656    -0.18400
C1086       C  0.08609270  0.61887678  0.07264976     0.10000
C1087       C  0.08458791  0.58798458  0.07751253    -0.07200
C1088       C  0.10197301  0.57522938  0.09883548    -0.18400
C1089       C  0.12059525  0.59244810  0.11540517     0.10000
S1090       S  0.06309617  0.63868376  0.04816699    -0.33400
S1091       S  0.14186935  0.57392641  0.14281292    -0.33400
H1092       H  0.13198394  0.54497229  0.13823645     0.28000
H1093       H  0.03899017  0.62528914  0.05969750     0.28000
H1094       H  0.10516967  0.65924472  0.08358971     0.18600
H1095       H  0.10085833  0.55155745  0.10257985     0.18600
C1096       C  0.41389920  0.91343025  0.42371659    -0.07200
C1097       C  0.40652963  0.88530618  0.43445876    -0.18400
C1098       C  0.38765083  0.86720531  0.41940285     0.10000
C1099       C  0.37793938  0.87577304  0.39092857    -0.07200
C1100       C  0.38307837  0.90524970  0.38200700    -0.18400
C1101       C  0.40028123  0.92416669  0.39816724     0.10000
S1102       S  0.37487170  0.83576740  0.43988720    -0.33400
S1103       S  0.40270449  0.96198908  0.38549175    -0.33400
H1104       H  0.40077823  0.97415678  0.41406968     0.28000
H1105       H  0.34745311  0.83883622  0.42985525     0.28000
H1106       H  0.41505314  0.87749597  0.45522040     0.18600
H1107       H  0.37314205  0.91405240  0.36241243     0.18600
C1108       C  0.41825535  0.57533659  0.41156802    -0.07200
C1109       C  0.40315549  0.59876171  0.42422756    -0.18400
C1110       C  0.38331411  0.61483524  0.40793122     0.10000
C1111       C  0.37915861  0.60836701  0.37748484    -0.07200
C1112       C  0.39244406  0.58304940  0.36599692    -0.18400
C1113       C  0.41216299  0.56717151  0.38209426     0.10000
S1114       S  0.36275723  0.64243034  0.42698757    -0.33400
S1115       S  0.42936594  0.53757663  0.36267744    -0.33400
H1116       H  0.45599274  0.54936985  0.36760154     0.28000
H1117       H  0.37794949  0.64266326  0.45351861     0.28000
H1118       H  0.40668316  0.60427702  0.44719854     0.18600
H1119       H  0.38770151  0.57496883  0.34417301     0.18600
C1120       C  0.12388436  0.87327773  0.39170297    -0.07200
C1121       C  0.13281312  0.89824274  0.40805211    -0.18400
C1122       C  0.11435052  0.91543339  0.42470936     0.10000
C1123       C  0.08605576  0.90798597  0.42532544    -0.07200
C1124       C  0.07679627  0.88328466  0.40960070    -0.18400
C1125       C  0.09506173  0.86614964  0.39249412     0.10000
S1126       S  0.12814970  0.94715832  0.44402477    -0.33400
S1127       S  0.08060573  0.83618742  0.37078436    -0.33400
H1128       H  0.05287278  0.83908901  0.38005753     0.28000
H1129       H  0.10808436  0.94802473  0.46660323     0.28000
H1130       H  0.15402457  0.90560689  0.40758233     0.18600
H1131       H  0.05486765  0.87805735  0.41000735     0.18600
C1132       C  0.38250935  0.88557140  0.12380937    -0.07200
C1133       C  0.37381652  0.90023784  0.09773274    -0.18400
C1134       C  0.39196355  0.91786703  0.08097006     0.10000
C1135       C  0.41966424  0.92131507  0.09007224    -0.07200
C1136       C  0.42881312  0.90652293  0.11543240    -0.18400
C1137       C  0.41100177  0.88811160  0.13186516     0.10000
S1138       S  0.37867005  0.93486649  0.04771721    -0.33400
S1139       S  0.42595718  0.86660669  0.16169578    -0.33400
H1140       H  0.45056610  0.88312933  0.16452578     0.28000
H1141       H  0.39623519  0.95974853  0.04814287     0.28000
H1142       H  0.35308213  0.89749502  0.08930051     0.18600
H1143       H  0.45048541  0.90825242  0.12149089     0.18600
N1144       N  0.47021365  0.96665072  0.55786204    -0.07200
N1145       N  0.45146151  0.96255912  0.57882824    -0.59300
N1146       N  0.03398337  0.94591644  0.53868817    -0.06900
N1147       N  0.05488736  0.92780797  0.54381090    -0.61500
N1148       N  0.03446600  0.96824554  0.55733014    -0.06500
N1149       N  0.05584522  0.96573681  0.57543416    -0.59300
N1150       N  0.46950587  0.94475599  0.53869982    -0.06200
N1151       N  0.45027304  0.92527463  0.54628741    -0.61800
C1152       C  0.43895268  0.93693147  0.57106194     0.95000
C1153       C  0.06863044  0.94049626  0.56654973     0.94700
N1154       N  0.03448129  0.95734604  0.94880177    -0.07400
N1155       N  0.05352297  0.95009305  0.92906710    -0.59900
N1156       N  0.47018068  0.94034298  0.96960423    -0.05500
N1157       N  0.44970466  0.92126559  0.96534639    -0.61200
N1158       N  0.47125727  0.95945105  0.94763227    -0.07400
N1159       N  0.45170352  0.95372588  0.92810453    -0.60200
N1160       N  0.03382865  0.93778571  0.97040863    -0.05200
N1161       N  0.05227985  0.91663168  0.96565186    -0.61300
Mn1162     Mn  0.00176897  0.94177010  0.50453087     1.18400
C1163       C  0.06467412  0.92486636  0.94001752     0.97000
C1164       C  0.43808088  0.93006413  0.93941177     0.97700
N1165       N  0.03436397  0.53640492  0.55416508    -0.07500
N1166       N  0.05278979  0.54462349  0.57411261    -0.63800
N1167       N  0.46973364  0.55625306  0.53166418    -0.06300
N1168       N  0.44965719  0.57586869  0.53496318    -0.64400
N1169       N  0.46980918  0.53732763  0.55390341    -0.07000
N1170       N  0.44987078  0.54381062  0.57285691    -0.64000
N1171       N  0.03436676  0.55507069  0.53177666    -0.05900
N1172       N  0.05287268  0.57610346  0.53589148    -0.64700
Mn1173     Mn  0.50189659  0.50270868  0.55788113     1.10700
C1174       C  0.06414388  0.56947457  0.56238360     0.98300
C1175       C  0.43727506  0.56753936  0.56048713     0.98300
N1176       N  0.47011291  0.52836620  0.94109213    -0.07000
N1177       N  0.45155808  0.53279645  0.92010757    -0.62300
N1178       N  0.03472490  0.54880549  0.96126021    -0.06300
N1179       N  0.05434591  0.56790178  0.95373123    -0.59100
N1180       N  0.03437680  0.52640254  0.94268400    -0.07600
N1181       N  0.05372943  0.52983519  0.92226169    -0.61900
N1182       N  0.46980042  0.55045311  0.95999726    -0.06600
N1183       N  0.45111485  0.57038909  0.95213828    -0.59100
Mn1184     Mn  0.00307454  0.99258132  0.94551494     1.20200
Mn1185     Mn  0.50111644  0.55344913  0.99526940     1.10100
Cl1186     Cl  0.00224856  0.49746462  0.50191149    -0.87100
C1187       C  0.43985169  0.55913523  0.92713737     0.95300
C1188       C  0.06606389  0.55583612  0.92926997     0.95100
C1189       C  0.14553581  0.62443145  0.85783725     0.85400
C1190       C  0.14033218  0.62312686  0.82401944    -0.54900
C1191       C  0.15737826  0.64088651  0.80763450     0.08300
C1192       C  0.17768330  0.65907402  0.82630214     0.19300
C1193       C  0.17679572  0.61817582  0.86146308    -0.55600
C1194       C  0.19357287  0.63612914  0.84482382     0.08400
C1195       C  0.14217103  0.65774524  0.86452356    -0.55100
C1196       C  0.15908175  0.67580602  0.84817920     0.09000
H1197       H  0.12351633  0.61132127  0.81349306     0.13500
H1198       H  0.19134924  0.67389528  0.81308514    -0.00800
H1199       H  0.18489979  0.60091425  0.87581831     0.13800
H1200       H  0.12737330  0.66637046  0.88045705     0.13600
C1201       C  0.14079533  0.85290085  0.86876278     0.85400
C1202       C  0.14184221  0.81920280  0.87441558    -0.54900
C1203       C  0.15889855  0.80401410  0.85566807     0.08300
C1204       C  0.17445259  0.82404072  0.83353906     0.19300
C1205       C  0.17161118  0.86198206  0.87157094    -0.55600
C1206       C  0.18924247  0.84720666  0.85305184     0.08400
C1207       C  0.13421858  0.85649362  0.83573611    -0.55100
C1208       C  0.15154532  0.84140136  0.81722218     0.09000
H1209       H  0.13056519  0.80803588  0.89194771     0.13500
H1210       H  0.18858883  0.81169515  0.81859030    -0.00800
H1211       H  0.17921945  0.87785626  0.88761356     0.13800
H1212       H  0.11741138  0.87033998  0.82765946     0.13600
C1213       C  0.14603688  0.87329307  0.63909999     0.85400
C1214       C  0.13908184  0.87446938  0.67252932    -0.54900
C1215       C  0.15527961  0.85643729  0.68971002     0.08300
C1216       C  0.17597123  0.83779717  0.67182059     0.19300
C1217       C  0.17746936  0.87875686  0.63679109    -0.55600
C1218       C  0.19307376  0.86020096  0.65390653     0.08400
C1219       C  0.14240721  0.84000326  0.63197851    -0.55100
C1220       C  0.15805253  0.82160155  0.64911319     0.09000
H1221       H  0.12204358  0.88714918  0.68174225     0.13500
H1222       H  0.18883024  0.82259831  0.68545794    -0.00800
H1223       H  0.18657752  0.89551278  0.62247673     0.13800
H1224       H  0.12820891  0.83141356  0.61549205     0.13600
C1225       C  0.14053061  0.64420406  0.62953878     0.85400
C1226       C  0.13998073  0.67809935  0.62401606    -0.54900
C1227       C  0.15734327  0.69380869  0.64181717     0.08300
C1228       C  0.17361956  0.67456487  0.66380076     0.19300
C1229       C  0.17133046  0.63599135  0.62639782    -0.55600
C1230       C  0.18871091  0.65149497  0.64447333     0.08400
C1231       C  0.13397106  0.64132098  0.66269438    -0.55100
C1232       C  0.15129107  0.65686991  0.68070707     0.09000
H1233       H  0.12708233  0.68969762  0.60829853     0.13500
H1234       H  0.18754345  0.68768127  0.67822608    -0.00800
H1235       H  0.17871065  0.61929747  0.61100855     0.13800
H1236       H  0.11734190  0.62747831  0.67127843     0.13600
C1237       C  0.36252772  0.62922789  0.85446832     0.85400
C1238       C  0.36554582  0.66296935  0.85940639    -0.54900
C1239       C  0.34731604  0.68011511  0.84351103     0.08300
C1240       C  0.32811730  0.66170802  0.82357090     0.19300
C1241       C  0.33167753  0.62251626  0.86036737    -0.55600
C1242       C  0.31374999  0.63965899  0.84446872     0.08400
C1243       C  0.36590188  0.62624906  0.82049363    -0.55100
C1244       C  0.34796477  0.64313522  0.80458005     0.09000
H1245       H  0.38092130  0.67245515  0.87412934     0.13500
H1246       H  0.31295843  0.67488924  0.81070104    -0.00800
H1247       H  0.32467749  0.60547337  0.87565474     0.13800
H1248       H  0.38162456  0.61351207  0.80913302     0.13600
C1249       C  0.35733493  0.63858315  0.62627396     0.85400
C1250       C  0.36076606  0.63192183  0.65938812    -0.54900
C1251       C  0.34421053  0.64837197  0.67726887     0.08300
C1252       C  0.32521990  0.67005529  0.66062766     0.19300
C1253       C  0.32586280  0.63348428  0.62119165    -0.55600
C1254       C  0.30903075  0.65051238  0.63874436     0.08400
C1255       C  0.36123285  0.67235501  0.62311213    -0.55100
C1256       C  0.34453590  0.68875658  0.64111940     0.09000
H1257       H  0.37511988  0.61550886  0.66805442     0.13500
H1258       H  0.31220518  0.68378796  0.67553821    -0.00800
H1259       H  0.31720558  0.61692843  0.60668280     0.13800
H1260       H  0.37616712  0.68239807  0.60811006     0.13600
C1261       C  0.36102372  0.86769618  0.64296325     0.85400
C1262       C  0.36564853  0.83431361  0.63766706    -0.54900
C1263       C  0.34928869  0.81623999  0.65455406     0.08300
C1264       C  0.32904482  0.83302453  0.67474941     0.19300
C1265       C  0.32949395  0.87181076  0.63738621    -0.55600
C1266       C  0.31294239  0.85343947  0.65373378     0.08400
C1267       C  0.36396900  0.87190874  0.67665206    -0.55100
C1268       C  0.34721413  0.85392573  0.69318183     0.09000
H1269       H  0.38021947  0.82573485  0.62145415     0.13500
H1270       H  0.31561592  0.81826364  0.68831948    -0.00800
H1271       H  0.32020720  0.88780256  0.62263078     0.13800
H1272       H  0.37810108  0.88775541  0.68658878     0.13600
C1273       C  0.35797174  0.85851272  0.87231935     0.85400
C1274       C  0.36297365  0.86332136  0.83882004    -0.54900
C1275       C  0.34575942  0.84748240  0.82101766     0.08300
C1276       C  0.32499512  0.82806160  0.83801682     0.19300
C1277       C  0.32689144  0.86520786  0.87678291    -0.55600
C1278       C  0.30959314  0.84908354  0.85905706     0.08400
C1279       C  0.36087234  0.82446337  0.87551393    -0.55100
C1280       C  0.34303900  0.80845275  0.85818248     0.09000
H1281       H  0.37918485  0.87732985  0.82967349     0.13500
H1282       H  0.31079154  0.81548055  0.82339055    -0.00800
H1283       H  0.31939717  0.88171941  0.89227812     0.13800
H1284       H  0.37701741  0.81388815  0.88839079     0.13600
C1285       C  0.34715648  0.84913553  0.78833189    -0.07200
C1286       C  0.33077502  0.87039409  0.77396516    -0.18400
C1287       C  0.33117848  0.87343323  0.74309999     0.10000
C1288       C  0.34734087  0.85370290  0.72595599    -0.07200
C1289       C  0.36369490  0.83243839  0.74035204    -0.18400
C1290       C  0.36446667  0.83047168  0.77126874     0.10000
S1291       S  0.31052674  0.90292179  0.72748845    -0.33400
S1292       S  0.38825704  0.80386143  0.78699481    -0.33400
H1293       H  0.39036512  0.81622065  0.81529976     0.28000
H1294       H  0.32481716  0.90595453  0.70063789     0.28000
H1295       H  0.31790513  0.88513791  0.78699734     0.18600
H1296       H  0.37634687  0.81748149  0.72740377     0.18600
C1297       C  0.34585284  0.72158652  0.64283392    -0.07200
C1298       C  0.37108640  0.73503947  0.65037848    -0.18400
C1299       C  0.37290503  0.76570810  0.65484291     0.10000
C1300       C  0.34895186  0.78353943  0.65145869    -0.07200
C1301       C  0.32379316  0.77006263  0.64377384    -0.18400
C1302       C  0.32213014  0.73952494  0.63897454     0.10000
S1303       S  0.40612022  0.78020990  0.66595250    -0.33400
S1304       S  0.28971797  0.72506941  0.62586982    -0.33400
H1305       H  0.30259594  0.70719278  0.60456649     0.28000
H1306       H  0.39576515  0.80454987  0.68170261     0.28000
H1307       H  0.38934336  0.72141267  0.65369216     0.18600
H1308       H  0.30546902  0.78360137  0.64046381     0.18600
C1309       C  0.34835221  0.64398764  0.77191765    -0.07200
C1310       C  0.32827717  0.62747241  0.75683810    -0.18400
C1311       C  0.32710808  0.62740759  0.72595242     0.10000
C1312       C  0.34539050  0.64575513  0.70974474    -0.07200
C1313       C  0.36630041  0.66120675  0.72466267    -0.18400
C1314       C  0.36857156  0.65984911  0.75549287     0.10000
S1315       S  0.30285390  0.60222937  0.70895977    -0.33400
S1316       S  0.39817413  0.67823974  0.77175558    -0.33400
H1317       H  0.38894154  0.67930816  0.80107497     0.28000
H1318       H  0.31717898  0.59861355  0.68216081     0.28000
H1319       H  0.31411335  0.61350931  0.76917906     0.18600
H1320       H  0.38118165  0.67417723  0.71210079     0.18600
C1321       C  0.34573662  0.71308543  0.84661563    -0.07200
C1322       C  0.34791549  0.72524131  0.87512650    -0.18400
C1323       C  0.34635738  0.75584910  0.87997740     0.10000
C1324       C  0.34331038  0.77540529  0.85565358    -0.07200
C1325       C  0.34056131  0.76319187  0.82732896    -0.18400
C1326       C  0.34171440  0.73261873  0.82238070     0.10000
S1327       S  0.34652671  0.76782322  0.91790416    -0.33400
S1328       S  0.33918478  0.71995681  0.78462932    -0.33400
H1329       H  0.33790370  0.74774295  0.77053754     0.28000
H1330       H  0.32756543  0.79084266  0.91328499     0.28000
H1331       H  0.34999130  0.71064628  0.89406636     0.18600
H1332       H  0.33802760  0.77779167  0.80859749     0.18600
C1333       C  0.21942249  0.64821111  0.64334533    -0.07200
C1334       C  0.23260907  0.64626376  0.61566224    -0.18400
C1335       C  0.26158111  0.64665640  0.61301420     0.10000
C1336       C  0.27811321  0.64909357  0.63885935    -0.07200
C1337       C  0.26471188  0.65068210  0.66641139    -0.18400
C1338       C  0.23595065  0.64924988  0.66898671     0.10000
S1339       S  0.27519605  0.64570299  0.57578738    -0.33400
S1340       S  0.22195632  0.64636701  0.70574440    -0.33400
H1341       H  0.20276721  0.62437329  0.69767898     0.28000
H1342       H  0.29855411  0.66343998  0.58083501     0.28000
H1343       H  0.22022593  0.64574505  0.59569626     0.18600
H1344       H  0.27669661  0.65227958  0.68650592     0.18600
C1345       C  0.15728007  0.78894102  0.64680852    -0.07200
C1346       C  0.18234544  0.77378821  0.64248079    -0.18400
C1347       C  0.18289472  0.74292822  0.63961266     0.10000
C1348       C  0.15796325  0.72665857  0.64175617    -0.07200
C1349       C  0.13285098  0.74190991  0.64562711    -0.18400
C1350       C  0.13227590  0.77269810  0.64873371     0.10000
S1351       S  0.21572011  0.72579398  0.63160821    -0.33400
S1352       S  0.09926588  0.78956466  0.65705291    -0.33400
H1353       H  0.11002772  0.81108389  0.67633377     0.28000
H1354       H  0.20456489  0.70497385  0.61182091     0.28000
H1355       H  0.20155952  0.78616793  0.64063692     0.18600
H1356       H  0.11363361  0.72957892  0.64766423     0.18600
C1357       C  0.28218243  0.85463892  0.65282073    -0.07200
C1358       C  0.26791907  0.85800727  0.67957677    -0.18400
C1359       C  0.23909714  0.86148847  0.68029730     0.10000
C1360       C  0.22383271  0.85993566  0.65379145    -0.07200
C1361       C  0.23796787  0.85591168  0.62692228    -0.18400
C1362       C  0.26702167  0.85326654  0.62613082     0.10000
S1363       S  0.22235482  0.86950712  0.71503573    -0.33400
S1364       S  0.28425250  0.84592917  0.59137961    -0.33400
H1365       H  0.26052875  0.84766368  0.57338751     0.28000
H1366       H  0.24666566  0.87514594  0.73124128     0.28000
H1367       H  0.27948371  0.85835224  0.70000071     0.18600
H1368       H  0.22610427  0.85406659  0.60669784     0.18600
C1369       C  0.15003470  0.84452117  0.78443905    -0.07200
C1370       C  0.14952252  0.87318577  0.77230554    -0.18400
C1371       C  0.15128929  0.87790074  0.74174978     0.10000
C1372       C  0.15245549  0.85333440  0.72237128    -0.07200
C1373       C  0.15213435  0.82464033  0.73448938    -0.18400
C1374       C  0.15081501  0.82000756  0.76509390     0.10000
S1375       S  0.15437598  0.91579561  0.72956412    -0.33400
S1376       S  0.14860368  0.78236273  0.77794691    -0.33400
H1377       H  0.12823178  0.78909025  0.79916721     0.28000
H1378       H  0.17297826  0.90996280  0.70631895     0.28000
H1379       H  0.14933889  0.89220853  0.78689872     0.18600
H1380       H  0.15255462  0.80556959  0.71995899     0.18600
C1381       C  0.21996998  0.85101060  0.85438101    -0.07200
C1382       C  0.23308671  0.85064327  0.88210966    -0.18400
C1383       C  0.26207034  0.85085625  0.88462889     0.10000
C1384       C  0.27871821  0.85157118  0.85876226    -0.07200
C1385       C  0.26549406  0.85322398  0.83114397    -0.18400
C1386       C  0.23655547  0.85344935  0.82875411     0.10000
S1387       S  0.27604888  0.84830970  0.92144203    -0.33400
S1388       S  0.22207524  0.85866364  0.79256108    -0.33400
H1389       H  0.20119496  0.87796453  0.80256430     0.28000
H1390       H  0.29723022  0.82867012  0.91354199     0.28000
H1391       H  0.22067326  0.84877807  0.90203765     0.18600
H1392       H  0.27783105  0.85474623  0.81113814     0.18600
C1393       C  0.15494486  0.64432210  0.77508227    -0.07200
C1394       C  0.15433702  0.67312259  0.76326475    -0.18400
C1395       C  0.15187745  0.67798279  0.73280625     0.10000
C1396       C  0.15054343  0.65357467  0.71339987    -0.07200
C1397       C  0.15052446  0.62478733  0.72527380    -0.18400
C1398       C  0.15310968  0.61983806  0.75566906     0.10000
S1399       S  0.14886767  0.71571567  0.72029210    -0.33400
S1400       S  0.15575928  0.58173742  0.76763081    -0.33400
H1401       H  0.17372253  0.58698297  0.79148582     0.28000
H1402       H  0.12873152  0.70895167  0.69890053     0.28000
H1403       H  0.15510776  0.69206058  0.77794651     0.18600
H1404       H  0.14994526  0.60586562  0.71056094     0.18600
C1405       C  0.22438532  0.63432200  0.84492118    -0.07200
C1406       C  0.23866604  0.63692100  0.87184537    -0.18400
C1407       C  0.26774461  0.63867688  0.87261430     0.10000
C1408       C  0.28304406  0.63700375  0.84593908    -0.07200
C1409       C  0.26872440  0.63372111  0.81924967    -0.18400
C1410       C  0.23975746  0.63205755  0.81840058     0.10000
S1411       S  0.28380106  0.64529168  0.90793579    -0.33400
S1412       S  0.22300177  0.62583747  0.78333218    -0.33400
H1413       H  0.24717352  0.62261242  0.76614565     0.28000
H1414       H  0.30436554  0.66452148  0.89691207     0.28000
H1415       H  0.22702960  0.63901223  0.89227204     0.18600
H1416       H  0.28035411  0.63253086  0.79887905     0.18600
C1417       C  0.15865735  0.70863340  0.85008542    -0.07200
C1418       C  0.18380769  0.72373016  0.85439614    -0.18400
C1419       C  0.18460673  0.75480250  0.85666625     0.10000
C1420       C  0.15966364  0.77108431  0.85495398    -0.07200
C1421       C  0.13453039  0.75587718  0.85102141    -0.18400
C1422       C  0.13385119  0.72511132  0.84760209     0.10000
S1423       S  0.21724490  0.77318974  0.86341413    -0.33400
S1424       S  0.10101297  0.70860142  0.83797641    -0.33400
H1425       H  0.11228573  0.68719236  0.81885461     0.31400
H1426       H  0.23422619  0.74802004  0.86041342     0.28000
H1427       H  0.20278727  0.71104165  0.85637112     0.18600
H1428       H  0.11535840  0.76828435  0.84909121     0.18600
C1429       C  0.08778160  0.57084730  0.91107611    -0.07200
C1430       C  0.10545775  0.59142571  0.92473148    -0.18400
C1431       C  0.12539711  0.60754658  0.90849308     0.10000
C1432       C  0.12707678  0.60420044  0.87726785    -0.07200
C1433       C  0.11104893  0.58147120  0.86437389    -0.18400
C1434       C  0.09128925  0.56545483  0.88049739     0.10000
S1435       S  0.14897495  0.63154151  0.92833028    -0.33400
S1436       S  0.07037013  0.53964174  0.85989909    -0.33400
H1437       H  0.04514068  0.55183175  0.86981536     0.28000
H1438       H  0.13597539  0.62952961  0.95614369     0.28000
H1439       H  0.10376493  0.59469921  0.94837600     0.18600
H1440       H  0.11348221  0.57565031  0.84142497     0.18600
C1441       C  0.09253796  0.92664680  0.58207609    -0.07200
C1442       C  0.10062483  0.93777735  0.60971272    -0.18400
C1443       C  0.11995044  0.92268585  0.62747136     0.10000
C1444       C  0.12922157  0.89406328  0.61889412    -0.07200
C1445       C  0.12421098  0.88543565  0.58942084    -0.18400
C1446       C  0.10663640  0.90160016  0.57086892     0.10000
S1447       S  0.13411054  0.94170512  0.65915072    -0.33400
S1448       S  0.10416996  0.88959568  0.53293997    -0.33400
H1449       H  0.10399385  0.91854436  0.52123576     0.28000
H1450       H  0.11918582  0.96830264  0.65598059     0.28000
H1451       H  0.09171529  0.95834630  0.61750049     0.18600
H1452       H  0.13437139  0.86609143  0.58036505     0.18600
C1453       C  0.37820682  0.62108592  0.60747193    -0.07200
C1454       C  0.36943685  0.60268701  0.58400674    -0.18400
C1455       C  0.38816243  0.58484640  0.56840636     0.10000
C1456       C  0.41645143  0.58549827  0.57584410    -0.07200
C1457       C  0.42568922  0.60459666  0.59795794    -0.18400
C1458       C  0.40718621  0.62269781  0.61353351     0.10000
S1459       S  0.37468809  0.56177759  0.53920886    -0.33400
S1460       S  0.42137498  0.64791958  0.64077188    -0.33400
H1461       H  0.44886182  0.63747753  0.64017209     0.28000
H1462       H  0.39417516  0.53880243  0.54224366     0.28000
H1463       H  0.34804798  0.60179916  0.57725978     0.18600
H1464       H  0.44768419  0.60550020  0.60274864     0.18600
C1465       C  0.12162895  0.62443031  0.61070120    -0.07200
C1466       C  0.10429728  0.63674509  0.58881431    -0.18400
C1467       C  0.08523188  0.61965011  0.57325032     0.10000
C1468       C  0.08388650  0.58878456  0.57821055    -0.07200
C1469       C  0.10156432  0.57599548  0.59918931    -0.18400
C1470       C  0.12033187  0.59322420  0.61545389     0.10000
S1471       S  0.06194774  0.63941606  0.54902494    -0.33400
S1472       S  0.14230521  0.57464876  0.64219208    -0.33400
H1473       H  0.13055998  0.54621962  0.63977940     0.28000
H1474       H  0.03798710  0.62581318  0.56065258     0.28000
H1475       H  0.10441873  0.65998942  0.58374095     0.18600
H1476       H  0.10066345  0.55228769  0.60278965     0.18600
C1477       C  0.41519746  0.91396753  0.92395404    -0.07200
C1478       C  0.40582837  0.88687555  0.93563075    -0.18400
C1479       C  0.38588985  0.86958359  0.92101886     0.10000
C1480       C  0.37671575  0.87780106  0.89221315    -0.07200
C1481       C  0.38413513  0.90634217  0.88213923    -0.18400
C1482       C  0.40271536  0.92443849  0.89757157     0.10000
S1483       S  0.37149851  0.83940239  0.94220025    -0.33400
S1484       S  0.40857462  0.96093770  0.88250585    -0.33400
H1485       H  0.40503124  0.97525148  0.90988914     0.28000
H1486       H  0.34440542  0.84324744  0.93152203     0.28000
H1487       H  0.41361432  0.87929420  0.95680189     0.18600
H1488       H  0.37501138  0.91513964  0.86210944     0.18600
C1489       C  0.41949073  0.57538637  0.90841312    -0.07200
C1490       C  0.40235459  0.59672785  0.92170028    -0.18400
C1491       C  0.38336019  0.61363810  0.90510567     0.10000
C1492       C  0.38186292  0.61002899  0.87387534    -0.07200
C1493       C  0.39802010  0.58723038  0.86119128    -0.18400
C1494       C  0.41692908  0.57057890  0.87768090     0.10000
S1495       S  0.36094590  0.63924207  0.92455813    -0.33400
S1496       S  0.43800930  0.54460255  0.85738638    -0.33400
H1497       H  0.46311719  0.55574675  0.86869287     0.28000
H1498       H  0.36919895  0.63184851  0.95346790     0.28000
H1499       H  0.40378313  0.60005803  0.94535033     0.18600
H1500       H  0.39629837  0.58156183  0.83818906     0.18600
C1501       C  0.12047183  0.87080411  0.88812218    -0.07200
C1502       C  0.12679401  0.90075500  0.89431790    -0.18400
C1503       C  0.10957450  0.91846209  0.91189854     0.10000
C1504       C  0.08493159  0.90652269  0.92370486    -0.07200
C1505       C  0.07769936  0.87731709  0.91675843    -0.18400
C1506       C  0.09416899  0.85997949  0.89792532     0.10000
S1507       S  0.12027362  0.95620698  0.91841339    -0.33400
S1508       S  0.07824199  0.82611905  0.88518395    -0.33400
H1509       H  0.08800732  0.82846640  0.85599123     0.28000
H1510       H  0.10873029  0.95833208  0.94692304     0.28000
H1511       H  0.14510390  0.91100648  0.88496725     0.18600
H1512       H  0.05792223  0.86866331  0.92432115     0.18600
C1513       C  0.38138457  0.88716226  0.62498082    -0.07200
C1514       C  0.37180773  0.90876599  0.60463843    -0.18400
C1515       C  0.39006806  0.92587017  0.58754415     0.10000
C1516       C  0.41878880  0.92121540  0.58989811    -0.07200
C1517       C  0.42876361  0.90048566  0.61025911    -0.18400
C1518       C  0.41065046  0.88375683  0.62805146     0.10000
S1519       S  0.37531186  0.95279419  0.56251499    -0.33400
S1520       S  0.42564791  0.85817442  0.65445275    -0.33400
H1521       H  0.45372425  0.86376695  0.64800989     0.28000
H1522       H  0.39734078  0.97315314  0.56374759     0.28000
H1523       H  0.35009889  0.91314518  0.60157010     0.18600
H1524       H  0.45097722  0.89740437  0.61209036     0.18600
N1525       N  0.97062284  0.46644640  0.05957808    -0.07200
N1526       N  0.95121940  0.46304128  0.07999415    -0.59300
N1527       N  0.53270109  0.44397383  0.03846166    -0.06900
N1528       N  0.55280645  0.42505478  0.04436939    -0.61500
N1529       N  0.53317335  0.46608451  0.05735397    -0.06500
N1530       N  0.55373822  0.46260484  0.07637837    -0.59300
N1531       N  0.96973945  0.44452767  0.04048251    -0.06200
N1532       N  0.94981658  0.42571524  0.04750565    -0.61800
C1533       C  0.93820471  0.43780449  0.07185964     0.95000
C1534       C  0.56607482  0.43696661  0.06787224     0.94700
N1535       N  0.53420755  0.46050421  0.44944311    -0.07400
N1536       N  0.55422699  0.45417350  0.43055079    -0.59900
N1537       N  0.96901850  0.44077690  0.47138803    -0.05500
N1538       N  0.94817760  0.42220251  0.46727043    -0.61200
N1539       N  0.97044452  0.45975003  0.44933150    -0.07400
N1540       N  0.95082344  0.45446640  0.42987136    -0.60200
N1541       N  0.53352208  0.44093294  0.47102615    -0.05200
N1542       N  0.55299994  0.42073265  0.46721763    -0.61300
Mn1543     Mn  0.50080705  0.44081129  0.00363356     1.18400
C1544       C  0.56593339  0.42959434  0.44216795     0.97000
C1545       C  0.93679835  0.43124117  0.44132500     0.97700
N1546       N  0.53665675  0.03650219  0.05328871    -0.07500
N1547       N  0.55606110  0.04403852  0.07254294    -0.63800
N1548       N  0.97067636  0.05505389  0.03185157    -0.06300
N1549       N  0.95120350  0.07530677  0.03578285    -0.64400
N1550       N  0.97083084  0.03616772  0.05413802    -0.07000
N1551       N  0.95155579  0.04329355  0.07368740    -0.64000
N1552       N  0.53606015  0.05566849  0.03134114    -0.05900
N1553       N  0.55491426  0.07647426  0.03530373    -0.64700
Mn1554     Mn  0.00286187  0.00123515  0.05765460     1.10700
C1555       C  0.56750246  0.06902585  0.06096319     0.98300
C1556       C  0.93925385  0.06744058  0.06173933     0.98300
N1557       N  0.97076898  0.02855602  0.44117810    -0.07000
N1558       N  0.95178350  0.03264811  0.42055190    -0.62300
N1559       N  0.53402929  0.05055994  0.46039376    -0.06300
N1560       N  0.55384097  0.06969297  0.45375316    -0.59100
N1561       N  0.53412032  0.02840971  0.44156522    -0.07600
N1562       N  0.55401306  0.03204558  0.42178510    -0.61900
N1563       N  0.97051373  0.05073681  0.45998029    -0.06600
N1564       N  0.95142749  0.07036151  0.45249925    -0.59100
Mn1565     Mn  0.50261675  0.49520988  0.44568827     1.20200
Mn1566     Mn  0.00189294  0.05429616  0.49497907     1.10100
Cl1567     Cl  0.50374292  0.99750507  0.00071146    -0.87100
C1568       C  0.93988610  0.05885009  0.42781007     0.95300
C1569       C  0.56619843  0.05791489  0.42954600     0.95100
C1570       C  0.64388369  0.13041039  0.36061847     0.85400
C1571       C  0.63839983  0.12921298  0.32690173    -0.54900
C1572       C  0.65519654  0.14709428  0.31038890     0.08300
C1573       C  0.67536402  0.16562000  0.32902971     0.19300
C1574       C  0.67519056  0.12463361  0.36404879    -0.55600
C1575       C  0.69169046  0.14283624  0.34742511     0.08400
C1576       C  0.64000844  0.16359868  0.36750916    -0.55100
C1577       C  0.65660605  0.18199668  0.35117600     0.09000
H1578       H  0.62166654  0.11701865  0.31661442     0.13500
H1579       H  0.68878888  0.18066883  0.31579797    -0.00800
H1580       H  0.68354486  0.10734705  0.37821415     0.13800
H1581       H  0.62525816  0.17190329  0.38365214     0.13600
C1582       C  0.64406832  0.36030719  0.37204187     0.85400
C1583       C  0.64283254  0.32667756  0.37803874    -0.54900
C1584       C  0.65896577  0.31005739  0.35961524     0.08300
C1585       C  0.67537870  0.32858661  0.33693987     0.19300
C1586       C  0.67539354  0.36742589  0.37420519    -0.55600
C1587       C  0.69172831  0.35099045  0.35577850     0.08400
C1588       C  0.63747321  0.36403300  0.33899536    -0.55100
C1589       C  0.65347539  0.34731370  0.32059223     0.09000
H1590       H  0.62998149  0.31679108  0.39518235     0.13500
H1591       H  0.68852280  0.31498408  0.32205146    -0.00800
H1592       H  0.68469547  0.38303516  0.38931886     0.13800
H1593       H  0.62153456  0.37895929  0.33082536     0.13600
C1594       C  0.64554788  0.37230975  0.14180546     0.85400
C1595       C  0.63904477  0.37480282  0.17524129    -0.54900
C1596       C  0.65556889  0.35754846  0.19283973     0.08300
C1597       C  0.67621652  0.33833258  0.17550034     0.19300
C1598       C  0.67700978  0.37798574  0.13893138    -0.55600
C1599       C  0.69303188  0.36023376  0.15662972     0.08400
C1600       C  0.64219102  0.33873402  0.13613550    -0.55100
C1601       C  0.65826145  0.32117589  0.15357272     0.09000
H1602       H  0.62223637  0.38797831  0.18425812     0.13500
H1603       H  0.68917915  0.32364706  0.18957706    -0.00800
H1604       H  0.68579918  0.39425964  0.12386441     0.13800
H1605       H  0.62782706  0.32916865  0.12038498     0.13600
C1606       C  0.64256974  0.14372313  0.13141215     0.85400
C1607       C  0.64175284  0.17750407  0.12508463    -0.54900
C1608       C  0.65887866  0.19383593  0.14272023     0.08300
C1609       C  0.67492870  0.17532982  0.16547381     0.19300
C1610       C  0.67347245  0.13554258  0.12931418    -0.55600
C1611       C  0.69047894  0.15192762  0.14700509     0.08400
C1612       C  0.63529451  0.14201715  0.16457570    -0.55100
C1613       C  0.65232624  0.15813210  0.18252070     0.09000
H1614       H  0.62796856  0.18834050  0.10959417     0.13500
H1615       H  0.68860539  0.18888690  0.17978919    -0.00800
H1616       H  0.68127332  0.11851192  0.11453632     0.13800
H1617       H  0.61824024  0.12886175  0.17324915     0.13600
C1618       C  0.86068303  0.12795895  0.35666157     0.85400
C1619       C  0.86515034  0.16145967  0.36189649    -0.54900
C1620       C  0.84779299  0.17964211  0.34606707     0.08300
C1621       C  0.82763079  0.16243785  0.32616292     0.19300
C1622       C  0.82950278  0.12277247  0.36268457    -0.55600
C1623       C  0.81226999  0.14107824  0.34702561     0.08400
C1624       C  0.86351581  0.12492670  0.32267245    -0.55100
C1625       C  0.84645956  0.14290863  0.30701168     0.09000
H1626       H  0.88093691  0.16999231  0.37670930     0.13500
H1627       H  0.81313550  0.17656163  0.31340864    -0.00800
H1628       H  0.82179802  0.10594043  0.37780537     0.13800
H1629       H  0.87792434  0.11110643  0.31081301     0.13600
C1630       C  0.85937253  0.13893757  0.12858642     0.85400
C1631       C  0.86280587  0.13135704  0.16152449    -0.54900
C1632       C  0.84633181  0.14739473  0.17986963     0.08300
C1633       C  0.82764533  0.16983042  0.16400245     0.19300
C1634       C  0.82768896  0.13471168  0.12331010    -0.55600
C1635       C  0.81112374  0.15129229  0.14168214     0.08400
C1636       C  0.86358133  0.17280652  0.12640065    -0.55100
C1637       C  0.84706914  0.18889960  0.14496021     0.09000
H1638       H  0.87708755  0.11462569  0.16970639     0.13500
H1639       H  0.81484101  0.18324115  0.17940687    -0.00800
H1640       H  0.81864054  0.11955111  0.10760911     0.13800
H1641       H  0.87836461  0.18313875  0.11142905     0.13600
C1642       C  0.86105517  0.36834205  0.14395764     0.85400
C1643       C  0.86622820  0.33497383  0.13901906    -0.54900
C1644       C  0.85029034  0.31681222  0.15625145     0.08300
C1645       C  0.82974944  0.33348845  0.17622206     0.19300
C1646       C  0.82946826  0.37182817  0.13840012    -0.55600
C1647       C  0.81321692  0.35339214  0.15501779     0.08400
C1648       C  0.86405120  0.37299383  0.17756313    -0.55100
C1649       C  0.84766014  0.35488445  0.19433316     0.09000
H1650       H  0.88091607  0.32646195  0.12289106     0.13500
H1651       H  0.81661922  0.31865419  0.19004112    -0.00800
H1652       H  0.81994940  0.38753062  0.12350841     0.13800
H1653       H  0.87809192  0.38907573  0.18727414     0.13600
C1654       C  0.85981968  0.35863270  0.37309162     0.85400
C1655       C  0.86462934  0.36347741  0.33958226    -0.54900
C1656       C  0.84773806  0.34713183  0.32194851     0.08300
C1657       C  0.82758836  0.32711276  0.33912880     0.19300
C1658       C  0.82872323  0.36445709  0.37767596    -0.55600
C1659       C  0.81182497  0.34776549  0.36020155     0.08400
C1660       C  0.86370933  0.32476317  0.37651311    -0.55100
C1661       C  0.84625578  0.30814146  0.35933299     0.09000
H1662       H  0.88046415  0.37782960  0.33023382     0.13500
H1663       H  0.81358478  0.31411879  0.32464621    -0.00800
H1664       H  0.82088604  0.38096412  0.39299415     0.13800
H1665       H  0.88001129  0.31486940  0.38971836     0.13600
C1666       C  0.84874660  0.34918939  0.28930346    -0.07200
C1667       C  0.83234087  0.37074391  0.27539494    -0.18400
C1668       C  0.83244673  0.37412026  0.24456686     0.10000
C1669       C  0.84834815  0.35450606  0.22705688    -0.07200
C1670       C  0.86479134  0.33302831  0.24100882    -0.18400
C1671       C  0.86590348  0.33075840  0.27186757     0.10000
S1672       S  0.81153716  0.40359380  0.22935031    -0.33400
S1673       S  0.88999037  0.30421325  0.28713290    -0.33400
H1674       H  0.89353680  0.31766728  0.31479019     0.28000
H1675       H  0.82656894  0.40778853  0.20310689     0.28000
H1676       H  0.81963302  0.38536581  0.28874174     0.18600
H1677       H  0.87723469  0.31814244  0.22777164     0.18600
C1678       C  0.84796047  0.22179100  0.14692535    -0.07200
C1679       C  0.87313184  0.23573937  0.15389476    -0.18400
C1680       C  0.87468473  0.26655860  0.15759855     0.10000
C1681       C  0.85054976  0.28403774  0.15378602    -0.07200
C1682       C  0.82551436  0.27009085  0.14665277    -0.18400
C1683       C  0.82397819  0.23932701  0.14292823     0.10000
S1684       S  0.90779933  0.28167191  0.16827948    -0.33400
S1685       S  0.79154341  0.22318020  0.13153211    -0.33400
H1686       H  0.77749193  0.24988051  0.12575502     0.28000
H1687       H  0.89738792  0.30679616  0.18266169     0.28000
H1688       H  0.89156893  0.22240685  0.15726363     0.18600
H1689       H  0.80714968  0.28354753  0.14345939     0.18600
C1690       C  0.84736759  0.14389506  0.27441991    -0.07200
C1691       C  0.82690118  0.12840390  0.25888400    -0.18400
C1692       C  0.82718517  0.12727279  0.22800438     0.10000
C1693       C  0.84711432  0.14398022  0.21224548    -0.07200
C1694       C  0.86838146  0.15824587  0.22768351    -0.18400
C1695       C  0.86936531  0.15749771  0.25856983     0.10000
S1696       S  0.80308255  0.10223463  0.21057181    -0.33400
S1697       S  0.89968995  0.17360433  0.27570191    -0.33400
H1698       H  0.88908519  0.17726217  0.30426193     0.28000
H1699       H  0.81791232  0.09842691  0.18410393     0.28000
H1700       H  0.81144645  0.11578629  0.27091800     0.18600
H1701       H  0.88444855  0.16991067  0.21551719     0.18600
C1702       C  0.84806305  0.21266438  0.34883073    -0.07200
C1703       C  0.85115389  0.22504688  0.37714262    -0.18400
C1704       C  0.85037738  0.25574520  0.38168486     0.10000
C1705       C  0.84700675  0.27509685  0.35721985    -0.07200
C1706       C  0.84399399  0.26265284  0.32905207    -0.18400
C1707       C  0.84453648  0.23205728  0.32440886     0.10000
S1708       S  0.85191890  0.26803516  0.41946461    -0.33400
S1709       S  0.84233023  0.21922264  0.28669600    -0.33400
H1710       H  0.83571810  0.24638468  0.27311197     0.28000
H1711       H  0.83272058  0.29093718  0.41544514     0.28000
H1712       H  0.85316543  0.21059933  0.39620104     0.18600
H1713       H  0.84170173  0.27708825  0.31016660     0.18600
C1714       C  0.72130427  0.14952323  0.14587802    -0.07200
C1715       C  0.73468705  0.14934622  0.11819676    -0.18400
C1716       C  0.76371507  0.15040924  0.11583067     0.10000
C1717       C  0.78010584  0.15069908  0.14181511    -0.07200
C1718       C  0.76651629  0.15140173  0.16931516    -0.18400
C1719       C  0.73768858  0.15000890  0.17163975     0.10000
S1720       S  0.77797845  0.15449735  0.07913518    -0.33400
S1721       S  0.72330668  0.14702454  0.20821789    -0.33400
H1722       H  0.70341452  0.12584144  0.19992514     0.28000
H1723       H  0.79987404  0.17330530  0.08742204     0.28000
H1724       H  0.72238477  0.14996802  0.09817066     0.18600
H1725       H  0.77837054  0.15255010  0.18950663     0.18600
C1726       C  0.65807364  0.28852092  0.15142251    -0.07200
C1727       C  0.68311030  0.27392572  0.14540811    -0.18400
C1728       C  0.68377239  0.24326289  0.14089164     0.10000
C1729       C  0.65899516  0.22667363  0.14283488    -0.07200
C1730       C  0.63390108  0.24143615  0.14823198    -0.18400
C1731       C  0.63327646  0.27193894  0.15338541     0.10000
S1732       S  0.71648341  0.22681228  0.13108671    -0.33400
S1733       S  0.60054925  0.28795501  0.16431072    -0.33400
H1734       H  0.61196189  0.30961927  0.18298881     0.28000
H1735       H  0.70489137  0.20593935  0.11164407     0.28000
H1736       H  0.70212795  0.28662055  0.14336857     0.18600
H1737       H  0.61484613  0.22881886  0.15023025     0.18600
C1738       C  0.78238177  0.35445327  0.15448526    -0.07200
C1739       C  0.76841246  0.35769396  0.18141982    -0.18400
C1740       C  0.73956678  0.36116541  0.18256008     0.10000
C1741       C  0.72391834  0.36005957  0.15621170    -0.07200
C1742       C  0.73782047  0.35624239  0.12916033    -0.18400
C1743       C  0.76687287  0.35336295  0.12799930     0.10000
S1744       S  0.72337772  0.36867141  0.21769519    -0.33400
S1745       S  0.78364000  0.34602829  0.09299805    -0.33400
H1746       H  0.75975285  0.34821719  0.07530266     0.28000
H1747       H  0.74791857  0.37167184  0.23419909     0.28000
H1748       H  0.78028094  0.35805626  0.20165720     0.18600
H1749       H  0.72576021  0.35462183  0.10905273     0.18600
C1750       C  0.65149651  0.34958520  0.28782330    -0.07200
C1751       C  0.65299273  0.37777850  0.27468082    -0.18400
C1752       C  0.65426877  0.38122296  0.24392176     0.10000
C1753       C  0.65320060  0.35590575  0.22554877    -0.07200
C1754       C  0.65096974  0.32779861  0.23868490    -0.18400
C1755       C  0.64973720  0.32443258  0.26942631     0.10000
S1756       S  0.65935286  0.41831340  0.23000476    -0.33400
S1757       S  0.64415137  0.28771791  0.28372728    -0.33400
H1758       H  0.62508810  0.29737942  0.30521558     0.28000
H1759       H  0.67589508  0.41034818  0.20566624     0.28000
H1760       H  0.65460518  0.39724992  0.28856559     0.18600
H1761       H  0.64973904  0.30826307  0.22483832     0.18600
C1762       C  0.72252791  0.35264562  0.35655524    -0.07200
C1763       C  0.73588900  0.35176967  0.38411265    -0.18400
C1764       C  0.76479518  0.35022819  0.38619495     0.10000
C1765       C  0.78107400  0.35002403  0.36008993    -0.07200
C1766       C  0.76768837  0.35167442  0.33261203    -0.18400
C1767       C  0.73881561  0.35335052  0.33062952     0.10000
S1768       S  0.77914113  0.34635319  0.42271795    -0.33400
S1769       S  0.72413101  0.35828495  0.29453305    -0.33400
H1770       H  0.70495779  0.37967134  0.30416510     0.28000
H1771       H  0.79856366  0.32501889  0.41399150     0.28000
H1772       H  0.72365505  0.35082045  0.40423146     0.18600
H1773       H  0.77984616  0.35234464  0.31243504     0.18600
C1774       C  0.65330015  0.14939028  0.27764120    -0.07200
C1775       C  0.65309586  0.17768602  0.26470252    -0.18400
C1776       C  0.65157353  0.18133531  0.23397939     0.10000
C1777       C  0.65076804  0.15620725  0.21539713    -0.07200
C1778       C  0.65030393  0.12794130  0.22840933    -0.18400
C1779       C  0.65192913  0.12418753  0.25906566     0.10000
S1780       S  0.64868484  0.21849911  0.22005410    -0.33400
S1781       S  0.65415382  0.08656085  0.27249965    -0.33400
H1782       H  0.67247733  0.09264171  0.29585356     0.28000
H1783       H  0.62746743  0.21070791  0.20027294     0.28000
H1784       H  0.65347553  0.19716764  0.27868305     0.18600
H1785       H  0.65008318  0.10845609  0.21443829     0.18600
C1786       C  0.72255658  0.14086984  0.34732968    -0.07200
C1787       C  0.73695415  0.14210736  0.37429627    -0.18400
C1788       C  0.76609446  0.14215600  0.37513942     0.10000
C1789       C  0.78138824  0.14021441  0.34846399    -0.07200
C1790       C  0.76691144  0.13852179  0.32169073    -0.18400
C1791       C  0.73787542  0.13841768  0.32080033     0.10000
S1792       S  0.78232217  0.14676952  0.41066606    -0.33400
S1793       S  0.72096262  0.13356363  0.28565259    -0.33400
H1794       H  0.74479853  0.12626506  0.26920758     0.28000
H1795       H  0.80380440  0.16514432  0.40020412     0.28000
H1796       H  0.72541087  0.14415219  0.39478766     0.18600
H1797       H  0.77847747  0.13717817  0.30126607     0.18600
C1798       C  0.65646761  0.21476093  0.35409876    -0.07200
C1799       C  0.68186664  0.22924435  0.35857122    -0.18400
C1800       C  0.68325274  0.26019376  0.36143337     0.10000
C1801       C  0.65866922  0.27710748  0.35985478    -0.07200
C1802       C  0.63316081  0.26250078  0.35640764    -0.18400
C1803       C  0.63185601  0.23174983  0.35267435     0.10000
S1804       S  0.71624611  0.27757636  0.36877431    -0.33400
S1805       S  0.59849081  0.21598822  0.34392737    -0.33400
H1806       H  0.60886919  0.19458924  0.32422119     0.31400
H1807       H  0.73263981  0.25189667  0.36650175     0.28000
H1808       H  0.70063016  0.21613937  0.36012786     0.18600
H1809       H  0.61422086  0.27536017  0.35490023     0.18600
C1810       C  0.58824122  0.07335552  0.41229190    -0.07200
C1811       C  0.60403530  0.09533541  0.42641313    -0.18400
C1812       C  0.62353178  0.11259533  0.41083322     0.10000
C1813       C  0.62614488  0.10931877  0.37970597    -0.07200
C1814       C  0.61262381  0.08494755  0.36657134    -0.18400
C1815       C  0.59364354  0.06743280  0.38213466     0.10000
S1816       S  0.64536809  0.13782926  0.43138788    -0.33400
S1817       S  0.57643252  0.03876577  0.36143540    -0.33400
H1818       H  0.54979957  0.05013084  0.36732285     0.28000
H1819       H  0.63663482  0.12934702  0.45988287     0.28000
H1820       H  0.60109000  0.09899514  0.44986417     0.18600
H1821       H  0.61663062  0.07897374  0.34387605     0.18600
C1822       C  0.58954802  0.42257768  0.08398288    -0.07200
C1823       C  0.59912118  0.43530365  0.11043541    -0.18400
C1824       C  0.61906787  0.42107167  0.12823985     0.10000
C1825       C  0.62788305  0.39191383  0.12106142    -0.07200
C1826       C  0.62091225  0.38123150  0.09272165    -0.18400
C1827       C  0.60233519  0.39612070  0.07420841     0.10000
S1828       S  0.63425096  0.44156121  0.15844099    -0.33400
S1829       S  0.59678075  0.38023448  0.03815172    -0.33400
H1830       H  0.59985637  0.40746543  0.02322641     0.28000
H1831       H  0.62180684  0.46906413  0.15219378     0.28000
H1832       H  0.59097755  0.45657413  0.11723861     0.18600
H1833       H  0.63040362  0.36125494  0.08428715     0.18600
C1834       C  0.88020496  0.12134094  0.10946683    -0.07200
C1835       C  0.87122363  0.10155260  0.08722875    -0.18400
C1836       C  0.88992412  0.08360804  0.07157508     0.10000
C1837       C  0.91851224  0.08560979  0.07741602    -0.07200
C1838       C  0.92788970  0.10570753  0.09861329    -0.18400
C1839       C  0.90935615  0.12364040  0.11454432     0.10000
S1840       S  0.87597893  0.05835435  0.04452364    -0.33400
S1841       S  0.92367908  0.14892452  0.14163084    -0.33400
H1842       H  0.95186935  0.14456498  0.13482014     0.28000
H1843       H  0.89597314  0.03601812  0.04846946     0.28000
H1844       H  0.84960791  0.09920070  0.08184427     0.18600
H1845       H  0.94997039  0.10717237  0.10276531     0.18600
C1846       C  0.62445849  0.12348580  0.11188288    -0.07200
C1847       C  0.61278230  0.13427738  0.08540227    -0.18400
C1848       C  0.59568845  0.11678283  0.06753967     0.10000
C1849       C  0.58877600  0.08754248  0.07639445    -0.07200
C1850       C  0.60179778  0.07595980  0.10167235    -0.18400
C1851       C  0.62020514  0.09300837  0.11877166     0.10000
S1852       S  0.58381755  0.13358641  0.03366427    -0.33400
S1853       S  0.63838764  0.07498690  0.14888480    -0.33400
H1854       H  0.62894400  0.04598926  0.14358856     0.28000
H1855       H  0.59416455  0.11045590  0.01594155     0.28000
H1856       H  0.61760079  0.15618989  0.07739377     0.18600
H1857       H  0.59759540  0.05326979  0.10805933     0.18600
C1858       C  0.91419054  0.41539926  0.42568416    -0.07200
C1859       C  0.90411449  0.38887464  0.43784077    -0.18400
C1860       C  0.88511663  0.37111094  0.42262953     0.10000
C1861       C  0.87766880  0.37841175  0.39305506    -0.07200
C1862       C  0.88539177  0.40667668  0.38253641    -0.18400
C1863       C  0.90315840  0.42517533  0.39835566     0.10000
S1864       S  0.87026133  0.34103182  0.44357873    -0.33400
S1865       S  0.91012260  0.46104740  0.38226972    -0.33400
H1866       H  0.90553887  0.47642489  0.40888984     0.28000
H1867       H  0.84352438  0.34449673  0.43195449     0.28000
H1868       H  0.91083081  0.38195209  0.45964715     0.18600
H1869       H  0.87713386  0.41502289  0.36191337     0.18600
C1870       C  0.91905366  0.07473372  0.40951756    -0.07200
C1871       C  0.90016944  0.09389763  0.42339627    -0.18400
C1872       C  0.88074286  0.11052898  0.40704923     0.10000
C1873       C  0.87999469  0.10820913  0.37566945    -0.07200
C1874       C  0.89829687  0.08765358  0.36232560    -0.18400
C1875       C  0.91802436  0.07187504  0.37852596     0.10000
S1876       S  0.85724992  0.13464886  0.42690846    -0.33400
S1877       S  0.94263616  0.05027076  0.35757107    -0.33400
H1878       H  0.96589561  0.06176894  0.37244674     0.28000
H1879       H  0.86746143  0.12916614  0.45551962     0.28000
H1880       H  0.90074782  0.09588858  0.44723013     0.18600
H1881       H  0.89840695  0.08357984  0.33905988     0.18600
C1882       C  0.62390091  0.37818107  0.39144608    -0.07200
C1883       C  0.63304548  0.40273037  0.40826576    -0.18400
C1884       C  0.61477004  0.41937522  0.42563034     0.10000
C1885       C  0.58654882  0.41171668  0.42645493    -0.07200
C1886       C  0.57701332  0.38779339  0.40981908    -0.18400
C1887       C  0.59505391  0.37124902  0.39201056     0.10000
S1888       S  0.62863272  0.45063231  0.44563174    -0.33400
S1889       S  0.58027911  0.34230738  0.36919248    -0.33400
H1890       H  0.55317362  0.34323451  0.38073121     0.28000
H1891       H  0.60916911  0.45015642  0.46882724     0.28000
H1892       H  0.65426861  0.41004794  0.40782892     0.18600
H1893       H  0.55504189  0.38274929  0.41008009     0.18600
C1894       C  0.88106543  0.38799382  0.12583355    -0.07200
C1895       C  0.87117981  0.40958209  0.10563142    -0.18400
C1896       C  0.88918177  0.42645451  0.08798188     0.10000
C1897       C  0.91796655  0.42210800  0.09041528    -0.07200
C1898       C  0.92818858  0.40165293  0.11085810    -0.18400
C1899       C  0.91034697  0.38481659  0.12872495     0.10000
S1900       S  0.87384454  0.45335455  0.06320631    -0.33400
S1901       S  0.92578834  0.35962904  0.15519912    -0.33400
H1902       H  0.95360339  0.36317150  0.14641411     0.28000
H1903       H  0.89654168  0.45738526  0.04412454     0.28000
H1904       H  0.84941997  0.41394172  0.10295605     0.18600
H1905       H  0.95044135  0.39892371  0.11275131     0.18600
N1906       N  0.97023005  0.46712793  0.56072408    -0.07200
N1907       N  0.95156438  0.46311646  0.58180773    -0.59300
N1908       N  0.53341551  0.44576586  0.54029769    -0.06900
N1909       N  0.55363960  0.42691809  0.54586136    -0.61500
N1910       N  0.53404136  0.46783941  0.55923186    -0.06500
N1911       N  0.55484690  0.46439050  0.57796577    -0.59300
N1912       N  0.96937353  0.44519203  0.54161194    -0.06200
N1913       N  0.95012412  0.42579145  0.54932075    -0.61800
C1914       C  0.93895570  0.43750599  0.57413197     0.95000
C1915       C  0.56715106  0.43882334  0.56918397     0.94700
N1916       N  0.53361929  0.45832945  0.94729120    -0.07400
N1917       N  0.55337335  0.45144075  0.92822376    -0.59900
N1918       N  0.96829935  0.43939402  0.97085770    -0.05500
N1919       N  0.94773045  0.42034820  0.96729755    -0.61200
N1920       N  0.96899878  0.45831720  0.94870239    -0.07400
N1921       N  0.94905227  0.45245724  0.92967402    -0.60200
N1922       N  0.53282604  0.43887641  0.96900064    -0.05200
N1923       N  0.55187430  0.41823633  0.96508588    -0.61300
Mn1924     Mn  0.50144385  0.44260375  0.50562964     1.18400
C1925       C  0.56471883  0.42661535  0.93983588     0.97000
C1926       C  0.93562663  0.42896024  0.94160967     0.97700
N1927       N  0.53396924  0.03647022  0.55184202    -0.07500
N1928       N  0.55272397  0.04432410  0.57163110    -0.63800
N1929       N  0.96958244  0.05582962  0.52942054    -0.06300
N1930       N  0.94968537  0.07567794  0.53266092    -0.64400
N1931       N  0.96978302  0.03726330  0.55193907    -0.07000
N1932       N  0.95013818  0.04425838  0.57107420    -0.64000
N1933       N  0.53372405  0.05544018  0.52970869    -0.05900
N1934       N  0.55234750  0.07640834  0.53391229    -0.64700
Mn1935     Mn  0.00203938  0.00276416  0.55599041     1.10700
C1936       C  0.56401870  0.06933303  0.56015292     0.98300
C1937       C  0.93754868  0.06790922  0.55850032     0.98300
N1938       N  0.97150552  0.02782949  0.94306291    -0.07000
N1939       N  0.95310921  0.03221252  0.92192389    -0.62300
N1940       N  0.53616361  0.05045136  0.96175582    -0.06300
N1941       N  0.55537720  0.07001144  0.95423740    -0.59100
N1942       N  0.53613983  0.02810927  0.94310210    -0.07600
N1943       N  0.55529515  0.03203796  0.92258504    -0.61900
N1944       N  0.97134687  0.05014061  0.96171749    -0.06600
N1945       N  0.95288576  0.07020204  0.95351132    -0.59100
Mn1946     Mn  0.50195546  0.49329662  0.94350663     1.20200
Mn1947     Mn  0.00285142  0.05331462  0.99687801     1.10100
Cl1948     Cl  0.50170338  0.99759830  0.49919932    -0.87100
C1949       C  0.94164966  0.05875172  0.92857760     0.95300
C1950       C  0.56713582  0.05826073  0.92968681     0.95100
C1951       C  0.64568939  0.12630814  0.85667049     0.85400
C1952       C  0.64099139  0.12495085  0.82277820    -0.54900
C1953       C  0.65827798  0.14257515  0.80662616     0.08300
C1954       C  0.67822010  0.16098749  0.82558437     0.19300
C1955       C  0.67694832  0.11997238  0.86060407    -0.55600
C1956       C  0.69397755  0.13801232  0.84431108     0.08400
C1957       C  0.64231452  0.15951947  0.86344484    -0.55100
C1958       C  0.65919359  0.17768018  0.84723785     0.09000
H1959       H  0.62470956  0.11295731  0.81169704     0.13500
H1960       H  0.69201277  0.17583321  0.81255533    -0.00800
H1961       H  0.68487094  0.10251778  0.87483861     0.13800
H1962       H  0.62760906  0.16797712  0.87957310     0.13600
C1963       C  0.64337883  0.35541720  0.87185678     0.85400
C1964       C  0.64270242  0.32151421  0.87679930    -0.54900
C1965       C  0.65931922  0.30580188  0.85792016     0.08300
C1966       C  0.67553671  0.32546716  0.83605401     0.19300
C1967       C  0.67460544  0.36284545  0.87473850    -0.55600
C1968       C  0.69130849  0.34743504  0.85586217     0.08400
C1969       C  0.63692267  0.35994661  0.83891073    -0.55100
C1970       C  0.65341034  0.34421596  0.82017855     0.09000
H1971       H  0.63009516  0.31080661  0.89364010     0.13500
H1972       H  0.68909906  0.31282545  0.82073440    -0.00800
H1973       H  0.68351838  0.37749891  0.89107767     0.13800
H1974       H  0.62068670  0.37467283  0.83104303     0.13600
C1975       C  0.64555385  0.37227522  0.64205344     0.85400
C1976       C  0.63946363  0.37485252  0.67554853    -0.54900
C1977       C  0.65563666  0.35696535  0.69284077     0.08300
C1978       C  0.67551415  0.33715681  0.67518619     0.19300
C1979       C  0.67710249  0.37687037  0.63877253    -0.55600
C1980       C  0.69275217  0.35852969  0.65618508     0.08400
C1981       C  0.64108544  0.33883161  0.63626377    -0.55100
C1982       C  0.65679527  0.32064312  0.65348521     0.09000
H1983       H  0.62301898  0.38836711  0.68481532     0.13500
H1984       H  0.68824029  0.32203977  0.68905076    -0.00800
H1985       H  0.68621236  0.39297920  0.62374263     0.13800
H1986       H  0.62649614  0.32992848  0.62035960     0.13600
C1987       C  0.64125503  0.14354379  0.62780533     0.85400
C1988       C  0.64004948  0.17762285  0.62328243    -0.54900
C1989       C  0.65748157  0.19318927  0.64118506     0.08300
C1990       C  0.67451127  0.17362640  0.66220197     0.19300
C1991       C  0.67221808  0.13620124  0.62362919    -0.55600
C1992       C  0.68960054  0.15139673  0.64195951     0.08400
C1993       C  0.63554993  0.13953492  0.66111750    -0.55100
C1994       C  0.65278124  0.15527220  0.67915317     0.09000
H1995       H  0.62691575  0.18937631  0.60789863     0.13500
H1996       H  0.68864713  0.18637830  0.67673949    -0.00800
H1997       H  0.67972065  0.12021960  0.60756938     0.13800
H1998       H  0.61926751  0.12523381  0.66969962     0.13600
C1999       C  0.86329411  0.12617210  0.85445343     0.85400
C2000       C  0.86679471  0.15990826  0.85887645    -0.54900
C2001       C  0.84882319  0.17712917  0.84279653     0.08300
C2002       C  0.82927037  0.15885135  0.82319524     0.19300
C2003       C  0.83226516  0.12011502  0.86059645    -0.55600
C2004       C  0.81453052  0.13744694  0.84450164     0.08400
C2005       C  0.86627396  0.12245299  0.82051006    -0.55100
C2006       C  0.84863852  0.13950353  0.80444270     0.09000
H2007       H  0.88220741  0.16934213  0.87359746     0.13500
H2008       H  0.81442830  0.17226842  0.81013006    -0.00800
H2009       H  0.82503691  0.10344257  0.87615939     0.13800
H2010       H  0.88124951  0.10885743  0.80907249     0.13600
C2011       C  0.85825318  0.13847358  0.62583213     0.85400
C2012       C  0.86138891  0.12946567  0.65845619    -0.54900
C2013       C  0.84491716  0.14484026  0.67732380     0.08300
C2014       C  0.82617952  0.16772499  0.66216554     0.19300
C2015       C  0.82675579  0.13424877  0.62005325    -0.55600
C2016       C  0.80999339  0.14998467  0.63884343     0.08400
C2017       C  0.86244906  0.17234532  0.62509801    -0.55100
C2018       C  0.84570038  0.18768895  0.64406262     0.09000
H2019       H  0.87574036  0.11255925  0.66612084     0.13500
H2020       H  0.81314382  0.18022337  0.67809830    -0.00800
H2021       H  0.81795836  0.11940390  0.60387156     0.13800
H2022       H  0.87739153  0.18322143  0.61069718     0.13600
C2023       C  0.86076911  0.36718107  0.64444173     0.85400
C2024       C  0.86642811  0.33378795  0.64014919    -0.54900
C2025       C  0.85020027  0.31562109  0.65713633     0.08300
C2026       C  0.82912706  0.33240048  0.67635157     0.19300
C2027       C  0.82926304  0.37011483  0.63789361    -0.55600
C2028       C  0.81285485  0.35171990  0.65444474     0.08400
C2029       C  0.86277510  0.37246121  0.67801693    -0.55100
C2030       C  0.84631357  0.35430122  0.69455695     0.09000
H2031       H  0.88139140  0.32531704  0.62429993     0.13500
H2032       H  0.81587827  0.31767573  0.69015980    -0.00800
H2033       H  0.81993743  0.38554620  0.62258035     0.13800
H2034       H  0.87638702  0.38885111  0.68790674     0.13600
C2035       C  0.85893990  0.35534128  0.87350962     0.85400
C2036       C  0.86356335  0.36191261  0.84026848    -0.54900
C2037       C  0.84693827  0.34606020  0.82187556     0.08300
C2038       C  0.82708938  0.32492558  0.83799976     0.19300
C2039       C  0.82773850  0.36026265  0.87847454    -0.55600
C2040       C  0.81113299  0.34424617  0.86005131     0.08400
C2041       C  0.86325900  0.32135406  0.87521510    -0.55100
C2042       C  0.84591211  0.30535376  0.85729069     0.09000
H2043       H  0.87908438  0.37716277  0.83174770     0.13500
H2044       H  0.81326946  0.31240305  0.82289079    -0.00800
H2045       H  0.81955527  0.37554451  0.89483120     0.13800
H2046       H  0.87964637  0.31088056  0.88782014     0.13600
C2047       C  0.84817064  0.34895899  0.78935038    -0.07200
C2048       C  0.83137312  0.37031462  0.77568126    -0.18400
C2049       C  0.83084459  0.37346899  0.74483065     0.10000
C2050       C  0.84677326  0.35393390  0.72719877    -0.07200
C2051       C  0.86370730  0.33279261  0.74094042    -0.18400
C2052       C  0.86524990  0.33066426  0.77173995     0.10000
S2053       S  0.80938859  0.40281885  0.73007817    -0.33400
S2054       S  0.88979496  0.30450719  0.78678889    -0.33400
H2055       H  0.89434848  0.31899152  0.81375577     0.28000
H2056       H  0.81662016  0.40053469  0.70015296     0.28000
H2057       H  0.81867475  0.38477465  0.78921107     0.18600
H2058       H  0.87625885  0.31812467  0.72751637     0.18600
C2059       C  0.84668446  0.22054225  0.64716425    -0.07200
C2060       C  0.87244776  0.23444721  0.65142133    -0.18400
C2061       C  0.87440137  0.26517827  0.65557648     0.10000
C2062       C  0.85010933  0.28276679  0.65465584    -0.07200
C2063       C  0.82445713  0.26885192  0.65037391    -0.18400
C2064       C  0.82244109  0.23813851  0.64666017     0.10000
S2065       S  0.90825894  0.28012470  0.66333871    -0.33400
S2066       S  0.78887326  0.22258341  0.63879578    -0.33400
H2067       H  0.77338297  0.24602109  0.65096143     0.28000
H2068       H  0.89871757  0.30265083  0.68216289     0.28000
H2069       H  0.89114127  0.22113348  0.65238198     0.18600
H2070       H  0.80588756  0.28229054  0.64890566     0.18600
C2071       C  0.84914176  0.13992325  0.77179239    -0.07200
C2072       C  0.82883132  0.12369181  0.75673131    -0.18400
C2073       C  0.82790734  0.12332940  0.72582354     0.10000
C2074       C  0.84664566  0.14114497  0.70964310    -0.07200
C2075       C  0.86786648  0.15608301  0.72455053    -0.18400
C2076       C  0.86991525  0.15493888  0.75537575     0.10000
S2077       S  0.80344708  0.09843126  0.70875720    -0.33400
S2078       S  0.89990582  0.17258402  0.77165245    -0.33400
H2079       H  0.89035448  0.17472609  0.80078527     0.28000
H2080       H  0.81713987  0.09570740  0.68146684     0.28000
H2081       H  0.81423801  0.11026805  0.76911082     0.18600
H2082       H  0.88302670  0.16869246  0.71199992     0.18600
C2083       C  0.84758624  0.21009874  0.84574065    -0.07200
C2084       C  0.84893563  0.22226203  0.87430739    -0.18400
C2085       C  0.84787986  0.25299878  0.87900122     0.10000
C2086       C  0.84639765  0.27239480  0.85446523    -0.07200
C2087       C  0.84408410  0.26021126  0.82609271    -0.18400
C2088       C  0.84466016  0.22958648  0.82131214     0.10000
S2089       S  0.84597096  0.26668850  0.91642319    -0.33400
S2090       S  0.84217903  0.21670445  0.78365081    -0.33400
H2091       H  0.84622967  0.24413212  0.76942196     0.28000
H2092       H  0.84368928  0.23903703  0.93064894     0.28000
H2093       H  0.85010900  0.20747363  0.89315163     0.18600
H2094       H  0.84184114  0.27483355  0.80732102     0.18600
C2095       C  0.72032458  0.14818799  0.64104298    -0.07200
C2096       C  0.73412025  0.14969794  0.61366183    -0.18400
C2097       C  0.76318662  0.15057082  0.61198058     0.10000
C2098       C  0.77907801  0.14913258  0.63829128    -0.07200
C2099       C  0.76510885  0.14762097  0.66546913    -0.18400
C2100       C  0.73627330  0.14623418  0.66707894     0.10000
S2101       S  0.77826122  0.15656615  0.57593472    -0.33400
S2102       S  0.72133201  0.13977731  0.70293270    -0.33400
H2103       H  0.70198365  0.11913855  0.69216577     0.28000
H2104       H  0.79940624  0.17555832  0.58589346     0.28000
H2105       H  0.72215504  0.15183323  0.59350310     0.18600
H2106       H  0.77670193  0.14703605  0.68586449     0.18600
C2107       C  0.65631855  0.28797496  0.65096597    -0.07200
C2108       C  0.68156302  0.27326787  0.64642501    -0.18400
C2109       C  0.68240723  0.24266423  0.64179131     0.10000
C2110       C  0.65760135  0.22606724  0.64233687    -0.07200
C2111       C  0.63228400  0.24087432  0.64659615    -0.18400
C2112       C  0.63141992  0.27143519  0.65157274     0.10000
S2113       S  0.71547887  0.22641561  0.63328104    -0.33400
S2114       S  0.59820446  0.28753152  0.66051911    -0.33400
H2115       H  0.60873598  0.30899887  0.68001860     0.28000
H2116       H  0.70475444  0.20681885  0.61204404     0.28000
H2117       H  0.70070070  0.28587608  0.64546644     0.18600
H2118       H  0.61314937  0.22828448  0.64764197     0.18600
C2119       C  0.78204188  0.35261950  0.65381176    -0.07200
C2120       C  0.76810628  0.35575963  0.68077893    -0.18400
C2121       C  0.73926922  0.35889590  0.68203547     0.10000
C2122       C  0.72359584  0.35775339  0.65571241    -0.07200
C2123       C  0.73743557  0.35382751  0.62862076    -0.18400
C2124       C  0.76650512  0.35111889  0.62738705     0.10000
S2125       S  0.72316920  0.36593580  0.71734184    -0.33400
S2126       S  0.78328335  0.34354427  0.59244904    -0.33400
H2127       H  0.75924565  0.34458803  0.57488168     0.28000
H2128       H  0.74770634  0.36911710  0.73381532     0.28000
H2129       H  0.77999783  0.35628381  0.70099419     0.18600
H2130       H  0.72532927  0.35211907  0.60855081     0.18600
C2131       C  0.65149452  0.34722387  0.78752095    -0.07200
C2132       C  0.65293200  0.37569992  0.77500490    -0.18400
C2133       C  0.65439716  0.37976825  0.74433478     0.10000
C2134       C  0.65326403  0.35481867  0.72547368    -0.07200
C2135       C  0.65098765  0.32646409  0.73800667    -0.18400
C2136       C  0.64989730  0.32244852  0.76862539     0.10000
S2137       S  0.65995723  0.41706139  0.73119110    -0.33400
S2138       S  0.64482809  0.28535345  0.78209318    -0.33400
H2139       H  0.62542021  0.29425631  0.80355437     0.28000
H2140       H  0.67659522  0.40933280  0.70684459     0.28000
H2141       H  0.65443554  0.39487202  0.78931201     0.18600
H2142       H  0.64968451  0.30721240  0.72377287     0.18600
C2143       C  0.72202738  0.34926454  0.85703960    -0.07200
C2144       C  0.73537262  0.34460261  0.88425452    -0.18400
C2145       C  0.76430094  0.34242314  0.88598743     0.10000
C2146       C  0.78045333  0.34599477  0.86008722    -0.07200
C2147       C  0.76710289  0.35123793  0.83305698    -0.18400
C2148       C  0.73824034  0.35324977  0.83136215     0.10000
S2149       S  0.77902301  0.33281527  0.92135694    -0.33400
S2150       S  0.72339534  0.36260508  0.79616733    -0.33400
H2151       H  0.70337531  0.38167733  0.80836584     0.28000
H2152       H  0.80003750  0.31464358  0.90970230     0.28000
H2153       H  0.72309336  0.34098867  0.90404687     0.18600
H2154       H  0.77929199  0.35441209  0.81313709     0.18600
C2155       C  0.65656152  0.14509366  0.77392615    -0.07200
C2156       C  0.65641828  0.17351480  0.76137723    -0.18400
C2157       C  0.65390292  0.17758577  0.73084468     0.10000
C2158       C  0.65201152  0.15271738  0.71198175    -0.07200
C2159       C  0.65170790  0.12426679  0.72460120    -0.18400
C2160       C  0.65445457  0.12010962  0.75512043     0.10000
S2161       S  0.65106719  0.21506680  0.71773254    -0.33400
S2162       S  0.65705199  0.08230578  0.76800983    -0.33400
H2163       H  0.67504444  0.08818009  0.79170043     0.28000
H2164       H  0.62928497  0.20803248  0.69836062     0.28000
H2165       H  0.65738896  0.19281613  0.77556904     0.18600
H2166       H  0.65082344  0.10497913  0.71038847     0.18600
C2167       C  0.72484767  0.13566726  0.84451947    -0.07200
C2168       C  0.73911645  0.13750009  0.87154631    -0.18400
C2169       C  0.76827216  0.13804732  0.87251190     0.10000
C2170       C  0.78368976  0.13570346  0.84595406    -0.07200
C2171       C  0.76935650  0.13318507  0.81918220    -0.18400
C2172       C  0.74033967  0.13303761  0.81809001     0.10000
S2173       S  0.78434856  0.14405583  0.90791440    -0.33400
S2174       S  0.72370036  0.12810742  0.78276931    -0.33400
H2175       H  0.74782433  0.12790913  0.76520927     0.28000
H2176       H  0.80540668  0.16271576  0.89697292     0.28000
H2177       H  0.72745627  0.13988927  0.89192443     0.18600
H2178       H  0.78105809  0.13139504  0.79889410     0.18600
C2179       C  0.65870989  0.21050317  0.84975745    -0.07200
C2180       C  0.68388269  0.22544129  0.85400921    -0.18400
C2181       C  0.68472967  0.25635920  0.85748514     0.10000
C2182       C  0.65977425  0.27280616  0.85695165    -0.07200
C2183       C  0.63454539  0.25771690  0.85326000    -0.18400
C2184       C  0.63382149  0.22706474  0.84863895     0.10000
S2185       S  0.71764953  0.27416334  0.86403153    -0.33400
S2186       S  0.60082795  0.21091945  0.83902055    -0.33400
H2187       H  0.61185801  0.19013091  0.81905272     0.31400
H2188       H  0.73375343  0.24825414  0.86610232     0.28000
H2189       H  0.70290576  0.21271167  0.85493472     0.18600
H2190       H  0.61534458  0.27017517  0.85222861     0.18600
C2191       C  0.58782085  0.07395665  0.91097259    -0.07200
C2192       C  0.60750516  0.09242580  0.92442244    -0.18400
C2193       C  0.62704798  0.10848807  0.90757739     0.10000
C2194       C  0.62683957  0.10652115  0.87614703    -0.07200
C2195       C  0.60798088  0.08639043  0.86323295    -0.18400
C2196       C  0.58819433  0.07112654  0.87991589     0.10000
S2197       S  0.65219340  0.13111537  0.92684104    -0.33400
S2198       S  0.56271692  0.05018971  0.85955033    -0.33400
H2199       H  0.54000438  0.06180398  0.87535536     0.28000
H2200       H  0.64096877  0.12786551  0.95540783     0.28000
H2201       H  0.60759444  0.09415305  0.94829612     0.18600
H2202       H  0.60769871  0.08221421  0.83989879     0.18600
C2203       C  0.59071879  0.42431531  0.58492097    -0.07200
C2204       C  0.60028814  0.43654038  0.61159608    -0.18400
C2205       C  0.62001531  0.42178450  0.62922927     0.10000
C2206       C  0.62843792  0.39260211  0.62160282    -0.07200
C2207       C  0.62170828  0.38257041  0.59299621    -0.18400
C2208       C  0.60345847  0.39803254  0.57462711     0.10000
S2209       S  0.63565718  0.44172751  0.65954966    -0.33400
S2210       S  0.59824283  0.38309957  0.53810529    -0.33400
H2211       H  0.60090740  0.41078374  0.52394144     0.28000
H2212       H  0.62195486  0.46888782  0.65508768     0.28000
H2213       H  0.59231664  0.45779239  0.61867812     0.18600
H2214       H  0.63104365  0.36258409  0.58436000     0.18600
C2215       C  0.87913556  0.12193535  0.60611112    -0.07200
C2216       C  0.87039969  0.10515755  0.58145236    -0.18400
C2217       C  0.88893751  0.08739730  0.56546407     0.10000
C2218       C  0.91699400  0.08632904  0.57385962    -0.07200
C2219       C  0.92629444  0.10412114  0.59702461    -0.18400
C2220       C  0.90803364  0.12237763  0.61278944     0.10000
S2221       S  0.87546881  0.06642169  0.53473679    -0.33400
S2222       S  0.92235420  0.14606288  0.64129587    -0.33400
H2223       H  0.95019548  0.13710531  0.63867477     0.28000
H2224       H  0.89378806  0.04233651  0.53746682     0.28000
H2225       H  0.84915276  0.10539910  0.57416322     0.18600
H2226       H  0.94814853  0.10382604  0.60254696     0.18600
C2227       C  0.62201392  0.12397385  0.60885636    -0.07200
C2228       C  0.60274488  0.13672490  0.58911340    -0.18400
C2229       C  0.58366110  0.11965125  0.57341879     0.10000
C2230       C  0.58394448  0.08849175  0.57615683    -0.07200
C2231       C  0.60320879  0.07534812  0.59528177    -0.18400
C2232       C  0.62211776  0.09248256  0.61161865     0.10000
S2233       S  0.55804260  0.13957572  0.55219657    -0.33400
S2234       S  0.64569121  0.07344738  0.63637603    -0.33400
H2235       H  0.63979781  0.04439011  0.62709462     0.28000
H2236       H  0.53553712  0.12310661  0.56342996     0.28000
H2237       H  0.60112972  0.16027713  0.58617225     0.18600
H2238       H  0.60327159  0.05145716  0.59756752     0.18600
C2239       C  0.91296418  0.41235415  0.92662114    -0.07200
C2240       C  0.90569173  0.38414171  0.93726489    -0.18400
C2241       C  0.88669073  0.36608927  0.92226181     0.10000
C2242       C  0.87658283  0.37492732  0.89403602    -0.07200
C2243       C  0.88147762  0.40454168  0.88539702    -0.18400
C2244       C  0.89900748  0.42328533  0.90136082     0.10000
S2245       S  0.87445510  0.33416360  0.94238672    -0.33400
S2246       S  0.90161347  0.46109578  0.88865572    -0.33400
H2247       H  0.90012182  0.47326537  0.91725907     0.28000
H2248       H  0.84705641  0.33632726  0.93204511     0.28000
H2249       H  0.91451045  0.37615523  0.95781754     0.18600
H2250       H  0.87125625  0.41353786  0.86606102     0.18600
C2251       C  0.92153101  0.07480466  0.90944841    -0.07200
C2252       C  0.90292581  0.09483065  0.92246590    -0.18400
C2253       C  0.88363138  0.11094642  0.90544817     0.10000
C2254       C  0.88293425  0.10748746  0.87414608    -0.07200
C2255       C  0.90117262  0.08640426  0.86162451    -0.18400
C2256       C  0.92057724  0.07084363  0.87851502     0.10000
S2257       S  0.86010603  0.13575720  0.92440315    -0.33400
S2258       S  0.94465507  0.04770420  0.85851585    -0.33400
H2259       H  0.96816979  0.05899884  0.87308412     0.28000
H2260       H  0.86841973  0.12910922  0.95346863     0.28000
H2261       H  0.90347298  0.09775241  0.94621302     0.18600
H2262       H  0.90119429  0.08154550  0.83841107     0.18600
C2263       C  0.62304051  0.37319451  0.89122961    -0.07200
C2264       C  0.63161681  0.39969825  0.90521424    -0.18400
C2265       C  0.61324088  0.41715521  0.92164581     0.10000
C2266       C  0.58540771  0.40838042  0.92445000    -0.07200
C2267       C  0.57633461  0.38262670  0.91035581    -0.18400
C2268       C  0.59442790  0.36543537  0.89312618     0.10000
S2269       S  0.62642936  0.45087906  0.93780333    -0.33400
S2270       S  0.57981389  0.33510462  0.87209439    -0.33400
H2271       H  0.55308520  0.33565583  0.88462564     0.28000
H2272       H  0.60826669  0.45139167  0.96216687     0.28000
H2273       H  0.65239243  0.40811001  0.90269739     0.18600
H2274       H  0.55458429  0.37676121  0.91184482     0.18600
C2275       C  0.88114902  0.38689640  0.62682912    -0.07200
C2276       C  0.87163167  0.40810815  0.60608257    -0.18400
C2277       C  0.88998603  0.42569641  0.58960302     0.10000
C2278       C  0.91871873  0.42185261  0.59292716    -0.07200
C2279       C  0.92860528  0.40158646  0.61379122    -0.18400
C2280       C  0.91038304  0.38445287  0.63105678     0.10000
S2281       S  0.87544087  0.45237753  0.56421467    -0.33400
S2282       S  0.92519832  0.35972311  0.65839143    -0.33400
H2283       H  0.95331873  0.36541901  0.65227325     0.28000
H2284       H  0.89673955  0.47346830  0.56703505     0.28000
H2285       H  0.84990969  0.41183775  0.60233584     0.18600
H2286       H  0.95081824  0.39915256  0.61639387     0.18600
N2287       N  0.97104355  0.96598427  0.06008976    -0.07200
N2288       N  0.95217226  0.96165060  0.08092969    -0.59300
N2289       N  0.53490218  0.94384025  0.03888272    -0.06900
N2290       N  0.55475144  0.92452366  0.04452304    -0.61500
N2291       N  0.53611795  0.96603369  0.05766147    -0.06500
N2292       N  0.55687850  0.96219445  0.07633475    -0.59300
N2293       N  0.97072041  0.94399620  0.04100446    -0.06200
N2294       N  0.95165700  0.92428832  0.04846316    -0.61800
C2295       C  0.94005692  0.93577902  0.07314353     0.95000
C2296       C  0.56858579  0.93628062  0.06773396     0.94700
N2297       N  0.53331608  0.95858873  0.44644592    -0.07400
N2298       N  0.55308538  0.95183912  0.42732550    -0.59900
N2299       N  0.96986835  0.94001714  0.46953972    -0.05500
N2300       N  0.94987655  0.92034860  0.46558162    -0.61200
N2301       N  0.97065326  0.95876261  0.44721892    -0.07400
N2302       N  0.95133636  0.95213772  0.42771567    -0.60200
N2303       N  0.53254730  0.93901954  0.46805709    -0.05200
N2304       N  0.55161308  0.91840792  0.46395472    -0.61300
Mn2305     Mn  0.50239285  0.94109636  0.00456048     1.18400
C2306       C  0.56448888  0.92692480  0.43872565     0.97000
C2307       C  0.93820937  0.92835516  0.43946740     0.97700
N2308       N  0.53255359  0.53609463  0.05253434    -0.07500
N2309       N  0.55122722  0.54379758  0.07243723    -0.63800
N2310       N  0.97099122  0.55471367  0.03166458    -0.06300
N2311       N  0.95089613  0.57431355  0.03533340    -0.64400
N2312       N  0.97132777  0.53580069  0.05389244    -0.07000
N2313       N  0.95157313  0.54215593  0.07312512    -0.64000
N2314       N  0.53252263  0.55506346  0.03040142    -0.05900
N2315       N  0.55124090  0.57590269  0.03472924    -0.64700
Mn2316     Mn  0.00303953  0.50081788  0.05702608     1.10700
C2317       C  0.56270867  0.56872891  0.06105290     0.98300
C2318       C  0.93878888  0.56591509  0.06105789     0.98300
N2319       N  0.97175248  0.52875390  0.44302204    -0.07000
N2320       N  0.95337782  0.53303779  0.42185231    -0.62300
N2321       N  0.53443170  0.55218131  0.46273414    -0.06300
N2322       N  0.55386876  0.57156495  0.45538022    -0.59100
N2323       N  0.53460038  0.52975561  0.44425103    -0.07600
N2324       N  0.55412555  0.53329971  0.42412387    -0.61900
N2325       N  0.97149714  0.55103823  0.46168093    -0.06600
N2326       N  0.95299602  0.57105157  0.45341519    -0.59100
Mn2327     Mn  0.50183636  0.99382817  0.44310212     1.20200
Mn2328     Mn  0.00296040  0.55373925  0.49698203     1.10100
Cl2329     Cl  0.50120207  0.49713598  0.99956898    -0.87100
C2330       C  0.94183347  0.55953891  0.42843877     0.95300
C2331       C  0.56598335  0.55948327  0.43113064     0.95100
C2332       C  0.64522836  0.62676736  0.35894946     0.85400
C2333       C  0.63945012  0.62551845  0.32525294    -0.54900
C2334       C  0.65699767  0.64225387  0.30839272     0.08300
C2335       C  0.67810250  0.65991917  0.32673146     0.19300
C2336       C  0.67617430  0.61927922  0.36219957    -0.55600
C2337       C  0.69333089  0.63643349  0.34529182     0.08400
C2338       C  0.64305139  0.66009870  0.36551760    -0.55100
C2339       C  0.66022789  0.67748730  0.34882625     0.09000
H2340       H  0.62196582  0.61439886  0.31521131     0.13500
H2341       H  0.69220723  0.67405349  0.31329642    -0.00800
H2342       H  0.68383523  0.60181537  0.37659750     0.13800
H2343       H  0.62875754  0.66928913  0.38165358     0.13600
C2344       C  0.64357649  0.85471715  0.37172267     0.85400
C2345       C  0.64420725  0.82103321  0.37781844    -0.54900
C2346       C  0.66133914  0.80541147  0.35942952     0.08300
C2347       C  0.67703130  0.82497239  0.33708669     0.19300
C2348       C  0.67448743  0.86346740  0.37464874    -0.55600
C2349       C  0.69191602  0.84814628  0.35636886     0.08400
C2350       C  0.63725974  0.85796664  0.33862100    -0.55100
C2351       C  0.65436434  0.84228610  0.32043761     0.09000
H2352       H  0.63235504  0.81026522  0.39519132     0.13500
H2353       H  0.69113782  0.81238268  0.32230599    -0.00800
H2354       H  0.68239008  0.87922209  0.39063224     0.13800
H2355       H  0.62061005  0.87185989  0.33024732     0.13600
C2356       C  0.64622769  0.86950053  0.14170559     0.85400
C2357       C  0.63952136  0.87133451  0.17516437    -0.54900
C2358       C  0.65598655  0.85375795  0.19257024     0.08300
C2359       C  0.67666677  0.83487335  0.17489908     0.19300
C2360       C  0.67766144  0.87519915  0.13912413    -0.55600
C2361       C  0.69357881  0.85709664  0.15651535     0.08400
C2362       C  0.64283595  0.83609082  0.13536625    -0.55100
C2363       C  0.65870352  0.81819026  0.15263898     0.09000
H2364       H  0.62259490  0.88427787  0.18425631     0.13500
H2365       H  0.68960565  0.81986857  0.18864670    -0.00800
H2366       H  0.68652391  0.89176763  0.12442827     0.13800
H2367       H  0.62849823  0.82688014  0.11938085     0.13600
C2368       C  0.64051279  0.64163016  0.12924319     0.85400
C2369       C  0.64019348  0.67558236  0.12394493    -0.54900
C2370       C  0.65778125  0.69101952  0.14170515     0.08300
C2371       C  0.67405174  0.67159770  0.16340556     0.19300
C2372       C  0.67133447  0.63336012  0.12568184    -0.55600
C2373       C  0.68887252  0.64864200  0.14380581     0.08400
C2374       C  0.63432285  0.63851908  0.16256438    -0.55100
C2375       C  0.65174903  0.65415010  0.18054072     0.09000
H2376       H  0.62754136  0.68742728  0.10821109     0.13500
H2377       H  0.68828804  0.68448052  0.17768445    -0.00800
H2378       H  0.67864792  0.61699397  0.10991482     0.13800
H2379       H  0.61760347  0.62483506  0.17118495     0.13600
C2380       C  0.86210310  0.62574417  0.35495896     0.85400
C2381       C  0.86440209  0.65949077  0.36005988    -0.54900
C2382       C  0.84585607  0.67629030  0.34429952     0.08300
C2383       C  0.82708531  0.65759531  0.32415791     0.19300
C2384       C  0.83133962  0.61831533  0.36081959    -0.55600
C2385       C  0.81315813  0.63515265  0.34487950     0.08400
C2386       C  0.86546605  0.62290590  0.32091600    -0.55100
C2387       C  0.84721076  0.63950359  0.30505276     0.09000
H2388       H  0.87951602  0.66925041  0.37491740     0.13500
H2389       H  0.81165300  0.67049899  0.31137432    -0.00800
H2390       H  0.82458249  0.60128039  0.37623795     0.13800
H2391       H  0.88120738  0.61032360  0.30944561     0.13600
C2392       C  0.85739539  0.63628348  0.12662239     0.85400
C2393       C  0.86020437  0.62931024  0.15976122    -0.54900
C2394       C  0.84364714  0.64587718  0.17755269     0.08300
C2395       C  0.82536976  0.66815280  0.16083143     0.19300
C2396       C  0.82585551  0.63220559  0.12075593    -0.55600
C2397       C  0.80914593  0.64924906  0.13849369     0.08400
C2398       C  0.86189314  0.67003822  0.12380419    -0.55100
C2399       C  0.84529465  0.68663540  0.14176253     0.09000
H2400       H  0.87427184  0.61265677  0.16850539     0.13500
H2401       H  0.81231458  0.68194479  0.17566356    -0.00800
H2402       H  0.81697164  0.61678225  0.10519416     0.13800
H2403       H  0.87705646  0.67993638  0.10897026     0.13600
C2404       C  0.86181711  0.86585205  0.14429254     0.85400
C2405       C  0.86695447  0.83261110  0.13867766    -0.54900
C2406       C  0.85065201  0.81410417  0.15511365     0.08300
C2407       C  0.83008505  0.83030554  0.17538215     0.19300
C2408       C  0.83024253  0.86969544  0.13865561    -0.55600
C2409       C  0.81378409  0.85082907  0.15460903     0.08400
C2410       C  0.86439407  0.86976081  0.17808494    -0.55100
C2411       C  0.84786497  0.85118932  0.19424695     0.09000
H2412       H  0.88179836  0.82444587  0.12253163     0.13500
H2413       H  0.81681431  0.81511792  0.18865601    -0.00800
H2414       H  0.82089421  0.88636280  0.12471576     0.13800
H2415       H  0.87815112  0.88576163  0.18835912     0.13600
C2416       C  0.86024276  0.85387017  0.37318504     0.85400
C2417       C  0.86524219  0.85838276  0.33964189    -0.54900
C2418       C  0.84745618  0.84311838  0.32199710     0.08300
C2419       C  0.82624437  0.82446103  0.33915965     0.19300
C2420       C  0.82946061  0.86146561  0.37789794    -0.55600
C2421       C  0.81171077  0.84589756  0.36034558     0.08400
C2422       C  0.86220430  0.81973779  0.37654548    -0.55100
C2423       C  0.84380255  0.80435976  0.35924837     0.09000
H2424       H  0.88172446  0.87197766  0.33040795     0.13500
H2425       H  0.81151390  0.81238849  0.32467989    -0.00800
H2426       H  0.82243313  0.87810367  0.39352462     0.13800
H2427       H  0.87795488  0.80858359  0.38949086     0.13600
C2428       C  0.84842677  0.84495532  0.28932565    -0.07200
C2429       C  0.83190170  0.86638421  0.27542047    -0.18400
C2430       C  0.83179034  0.86968965  0.24458859     0.10000
C2431       C  0.84793690  0.85031483  0.22701207    -0.07200
C2432       C  0.86436941  0.82880333  0.24095320    -0.18400
C2433       C  0.86537421  0.82631786  0.27182624     0.10000
S2434       S  0.81038909  0.89898805  0.22972767    -0.33400
S2435       S  0.88892152  0.79902018  0.28683591    -0.33400
H2436       H  0.88991337  0.80931019  0.31601285     0.28000
H2437       H  0.82169206  0.90032193  0.20120138     0.28000
H2438       H  0.81926171  0.88103820  0.28879798     0.18600
H2439       H  0.87686226  0.81399519  0.22766877     0.18600
C2440       C  0.84690692  0.71946693  0.14345015    -0.07200
C2441       C  0.87207837  0.73272704  0.15162607    -0.18400
C2442       C  0.87410927  0.76343745  0.15581407     0.10000
C2443       C  0.85044506  0.78146868  0.15141418    -0.07200
C2444       C  0.82548755  0.76824627  0.14263562    -0.18400
C2445       C  0.82352243  0.73756344  0.13832527     0.10000
S2446       S  0.90719524  0.77771801  0.16772886    -0.33400
S2447       S  0.79153744  0.72210436  0.12465414    -0.33400
H2448       H  0.77643761  0.74874744  0.12348807     0.28000
H2449       H  0.89700111  0.80298894  0.18204052     0.28000
H2450       H  0.89008640  0.71891681  0.15565209     0.18600
H2451       H  0.80759112  0.78220215  0.13865683     0.18600
C2452       C  0.84751552  0.64061118  0.27233296    -0.07200
C2453       C  0.82767311  0.62394661  0.25703596    -0.18400
C2454       C  0.82639205  0.62428926  0.22611624     0.10000
C2455       C  0.84445580  0.64310484  0.21008034    -0.07200
C2456       C  0.86503889  0.65881983  0.22523968    -0.18400
C2457       C  0.86735612  0.65712916  0.25605510     0.10000
S2458       S  0.80218526  0.59905760  0.20903433    -0.33400
S2459       S  0.89664594  0.67589080  0.27250791    -0.33400
H2460       H  0.88715612  0.67695171  0.30173417     0.28000
H2461       H  0.81424488  0.59832780  0.18080115     0.28000
H2462       H  0.81376816  0.60957149  0.26921573     0.18600
H2463       H  0.87971964  0.67221102  0.21285105     0.18600
C2464       C  0.84379709  0.70918260  0.34767817    -0.07200
C2465       C  0.84556868  0.72123363  0.37632599    -0.18400
C2466       C  0.84448555  0.75189603  0.38117142     0.10000
C2467       C  0.84284522  0.77142583  0.35674810    -0.07200
C2468       C  0.84007437  0.75936579  0.32838682    -0.18400
C2469       C  0.84015405  0.72880163  0.32346135     0.10000
S2470       S  0.84336241  0.76428850  0.41899899    -0.33400
S2471       S  0.83691952  0.71629663  0.28573047    -0.33400
H2472       H  0.83122321  0.74381707  0.27239385     0.28000
H2473       H  0.82565316  0.78841675  0.41342551     0.28000
H2474       H  0.84704531  0.70656217  0.39527185     0.18600
H2475       H  0.83844872  0.77407551  0.30961562     0.18600
C2476       C  0.71959188  0.64571616  0.14250438    -0.07200
C2477       C  0.73290430  0.64598758  0.11479480    -0.18400
C2478       C  0.76189955  0.64753130  0.11243062     0.10000
C2479       C  0.77823348  0.64819573  0.13845276    -0.07200
C2480       C  0.76473699  0.64804121  0.16596268    -0.18400
C2481       C  0.73599259  0.64587534  0.16829327     0.10000
S2482       S  0.77614743  0.65130010  0.07568592    -0.33400
S2483       S  0.72186267  0.64140194  0.20489154    -0.33400
H2484       H  0.70179530  0.62067341  0.19594023     0.28000
H2485       H  0.79832516  0.66979893  0.08375727     0.28000
H2486       H  0.72057853  0.64663516  0.09478565     0.18600
H2487       H  0.77667251  0.64893014  0.18613264     0.18600
C2488       C  0.65808013  0.78560183  0.15036861    -0.07200
C2489       C  0.68312279  0.77061016  0.14552205    -0.18400
C2490       C  0.68354025  0.73995648  0.14116054     0.10000
C2491       C  0.65849311  0.72378924  0.14222391    -0.07200
C2492       C  0.63341721  0.73892507  0.14661372    -0.18400
C2493       C  0.63299339  0.76944180  0.15141625     0.10000
S2494       S  0.71631850  0.72304100  0.13252508    -0.33400
S2495       S  0.60007054  0.78599432  0.16075566    -0.33400
H2496       H  0.61108391  0.80697470  0.18047253     0.28000
H2497       H  0.70504999  0.70324126  0.11179133     0.28000
H2498       H  0.70237060  0.78299603  0.14421520     0.18600
H2499       H  0.61414236  0.72660806  0.14802587     0.18600
C2500       C  0.78294147  0.85201156  0.15410969    -0.07200
C2501       C  0.76892462  0.85367561  0.18119083    -0.18400
C2502       C  0.74006800  0.85693556  0.18251579     0.10000
C2503       C  0.72444637  0.85698260  0.15613536    -0.07200
C2504       C  0.73837686  0.85470429  0.12891984    -0.18400
C2505       C  0.76744319  0.85224557  0.12759953     0.10000
S2506       S  0.72384477  0.86283566  0.21797897    -0.33400
S2507       S  0.78419770  0.84701873  0.09221779    -0.33400
H2508       H  0.76067483  0.85243201  0.07464544     0.28000
H2509       H  0.74838821  0.86521288  0.23457767     0.28000
H2510       H  0.78075015  0.85297679  0.20144391     0.18600
H2511       H  0.72634130  0.85395871  0.10874138     0.18600
C2512       C  0.65257989  0.84447370  0.28761708    -0.07200
C2513       C  0.65167874  0.87278371  0.27470979    -0.18400
C2514       C  0.65281250  0.87662541  0.24401628     0.10000
C2515       C  0.65368981  0.85153421  0.22532529    -0.07200
C2516       C  0.65383581  0.82319689  0.23822523    -0.18400
C2517       C  0.65318203  0.81942395  0.26894900     0.10000
S2518       S  0.65562626  0.91411904  0.23064363    -0.33400
S2519       S  0.65140201  0.78213498  0.28280859    -0.33400
H2520       H  0.63055741  0.78927065  0.30336273     0.28000
H2521       H  0.67456986  0.90753307  0.20789592     0.28000
H2522       H  0.65164889  0.89222088  0.28874970     0.18600
H2523       H  0.65410558  0.80372915  0.22422412     0.18600
C2524       C  0.72258855  0.85114737  0.35758173    -0.07200
C2525       C  0.73603304  0.84813064  0.38498011    -0.18400
C2526       C  0.76512397  0.84700158  0.38682407     0.10000
C2527       C  0.78110533  0.84933496  0.36067398    -0.07200
C2528       C  0.76760952  0.85311074  0.33349874    -0.18400
C2529       C  0.73873371  0.85444355  0.33176390     0.10000
S2530       S  0.78131197  0.83995813  0.42217239    -0.33400
S2531       S  0.72374714  0.86149670  0.29611152    -0.33400
H2532       H  0.70295695  0.88029238  0.30722231     0.28000
H2533       H  0.75679974  0.83867561  0.43906091     0.28000
H2534       H  0.72362911  0.84521000  0.40476149     0.18600
H2535       H  0.77968872  0.85521204  0.31337487     0.18600
C2536       C  0.65471174  0.64467342  0.27564278    -0.07200
C2537       C  0.65623991  0.67293790  0.26277123    -0.18400
C2538       C  0.65396243  0.67691302  0.23216593     0.10000
C2539       C  0.65071667  0.65204485  0.21347757    -0.07200
C2540       C  0.64860418  0.62381883  0.22643141    -0.18400
C2541       C  0.65086484  0.61976831  0.25703251     0.10000
S2542       S  0.65325957  0.71441937  0.21875199    -0.33400
S2543       S  0.65049310  0.58199214  0.27025610    -0.33400
H2544       H  0.66963425  0.58633384  0.29324181     0.28000
H2545       H  0.63114762  0.70860727  0.19941569     0.28000
H2546       H  0.65842629  0.69227119  0.27676225     0.18600
H2547       H  0.64657710  0.60447294  0.21243810     0.18600
C2548       C  0.72394289  0.63321486  0.34544880    -0.07200
C2549       C  0.73827652  0.63669375  0.37222040    -0.18400
C2550       C  0.76735862  0.63694370  0.37299700     0.10000
C2551       C  0.78252327  0.63260530  0.34657903    -0.07200
C2552       C  0.76809834  0.62810230  0.32011164    -0.18400
C2553       C  0.73908894  0.62827047  0.31920072     0.10000
S2554       S  0.78368987  0.64517191  0.40781795    -0.33400
S2555       S  0.72185768  0.62123297  0.28453338    -0.33400
H2556       H  0.74581413  0.61911510  0.26683628     0.28000
H2557       H  0.80471157  0.66308867  0.39566149     0.28000
H2558       H  0.72673300  0.64073544  0.39241149     0.18600
H2559       H  0.77968152  0.62483978  0.29995692     0.18600
C2560       C  0.66041303  0.71031049  0.35102647    -0.07200
C2561       C  0.68577392  0.72501774  0.35516604    -0.18400
C2562       C  0.68680619  0.75596079  0.35886826     0.10000
C2563       C  0.66188984  0.77246943  0.35870987    -0.07200
C2564       C  0.63657870  0.75757269  0.35516696    -0.18400
C2565       C  0.63564309  0.72705140  0.35027466     0.10000
S2566       S  0.71975827  0.77381015  0.36536311    -0.33400
S2567       S  0.60242873  0.71130226  0.34084101    -0.33400
H2568       H  0.61312146  0.69066354  0.32051842     0.31400
H2569       H  0.73618281  0.74805761  0.36465135     0.28000
H2570       H  0.70470476  0.71212072  0.35594015     0.18600
H2571       H  0.61743061  0.77014305  0.35430851     0.18600
C2572       C  0.58745009  0.57454270  0.41286453    -0.07200
C2573       C  0.60503602  0.59530919  0.42631128    -0.18400
C2574       C  0.62502478  0.61109748  0.40988890     0.10000
C2575       C  0.62661487  0.60728806  0.37870788    -0.07200
C2576       C  0.61071133  0.58438101  0.36610315    -0.18400
C2577       C  0.59097604  0.56865783  0.38237714     0.10000
S2578       S  0.64896278  0.63489977  0.42948529    -0.33400
S2579       S  0.57019229  0.54252847  0.36200453    -0.33400
H2580       H  0.54490502  0.55479552  0.37165338     0.28000
H2581       H  0.63569937  0.63371583  0.45720438     0.28000
H2582       H  0.60334800  0.59884084  0.44992085     0.18600
H2583       H  0.61331378  0.57816056  0.34326497     0.18600
C2584       C  0.59166998  0.92132771  0.08385187    -0.07200
C2585       C  0.60097434  0.93350819  0.11065341    -0.18400
C2586       C  0.62027535  0.91863233  0.12868507     0.10000
C2587       C  0.62889386  0.88952098  0.12112206    -0.07200
C2588       C  0.62229036  0.87939923  0.09246616    -0.18400
C2589       C  0.60416963  0.89481217  0.07389010     0.10000
S2590       S  0.63509985  0.93835287  0.15958061    -0.33400
S2591       S  0.59879083  0.87952118  0.03754211    -0.33400
H2592       H  0.60180435  0.90698350  0.02303895     0.28000
H2593       H  0.61861160  0.96398620  0.15756325     0.28000
H2594       H  0.59312611  0.95487795  0.11752063     0.18600
H2595       H  0.63170367  0.85946164  0.08384481     0.18600
C2596       C  0.87847534  0.61831590  0.10830480    -0.07200
C2597       C  0.86988750  0.59791762  0.08644020    -0.18400
C2598       C  0.88898811  0.58028755  0.07099389     0.10000
C2599       C  0.91753408  0.58336752  0.07662610    -0.07200
C2600       C  0.92643905  0.60367092  0.09781736    -0.18400
C2601       C  0.90752858  0.62110783  0.11369501     0.10000
S2602       S  0.87560541  0.55409068  0.04450017    -0.33400
S2603       S  0.92127769  0.64646785  0.14106994    -0.33400
H2604       H  0.94962942  0.64161053  0.13550811     0.28000
H2605       H  0.89661870  0.53278650  0.04806625     0.28000
H2606       H  0.84831210  0.59484670  0.08121733     0.18600
H2607       H  0.94847730  0.60570260  0.10198345     0.18600
C2608       C  0.62104964  0.62234138  0.11028555    -0.07200
C2609       C  0.60261149  0.63534596  0.08979097    -0.18400
C2610       C  0.58347098  0.61862611  0.07384239     0.10000
C2611       C  0.58280108  0.58754863  0.07715950    -0.07200
C2612       C  0.60122913  0.57413278  0.09704198    -0.18400
C2613       C  0.62022114  0.59093733  0.11359304     0.10000
S2614       S  0.55911201  0.63900737  0.05138891    -0.33400
S2615       S  0.64278027  0.57162747  0.13919986    -0.33400
H2616       H  0.63551256  0.54256624  0.13110559     0.28000
H2617       H  0.53577165  0.62391083  0.06260319     0.28000
H2618       H  0.60171710  0.65882493  0.08630297     0.18600
H2619       H  0.60059572  0.55029790  0.09971642     0.18600
C2620       C  0.91598399  0.91121698  0.42422693    -0.07200
C2621       C  0.90775853  0.88373190  0.43601473    -0.18400
C2622       C  0.88852536  0.86550648  0.42148094     0.10000
C2623       C  0.87910077  0.87326752  0.39267002    -0.07200
C2624       C  0.88533835  0.90211080  0.38253116    -0.18400
C2625       C  0.90310243  0.92108080  0.39788927     0.10000
S2626       S  0.87506543  0.83494639  0.44283092    -0.33400
S2627       S  0.90724452  0.95790081  0.38293550    -0.33400
H2628       H  0.90358963  0.97191393  0.41045862     0.28000
H2629       H  0.84770816  0.83821838  0.43264330     0.28000
H2630       H  0.91583549  0.87659287  0.45721328     0.18600
H2631       H  0.87578748  0.91047733  0.36253747     0.18600
C2632       C  0.92132789  0.57524090  0.40944445    -0.07200
C2633       C  0.90280769  0.59526995  0.42258742    -0.18400
C2634       C  0.88299917  0.61087251  0.40579505     0.10000
C2635       C  0.88207705  0.60738248  0.37450224    -0.07200
C2636       C  0.90000594  0.58611398  0.36187189    -0.18400
C2637       C  0.91964546  0.57067679  0.37859591     0.10000
S2638       S  0.85899802  0.63486728  0.42510598    -0.33400
S2639       S  0.94281655  0.54662942  0.35848260    -0.33400
H2640       H  0.96687926  0.55815824  0.37179078     0.28000
H2641       H  0.86532877  0.62539064  0.45397591     0.28000
H2642       H  0.90372974  0.59852643  0.44627995     0.18600
H2643       H  0.89929339  0.58084045  0.33873111     0.18600
C2644       C  0.62286465  0.87279736  0.39039109    -0.07200
C2645       C  0.62961603  0.90226550  0.39830306    -0.18400
C2646       C  0.61135302  0.92018875  0.41447678     0.10000
C2647       C  0.58541058  0.90882968  0.42324784    -0.07200
C2648       C  0.57798857  0.88013536  0.41477810    -0.18400
C2649       C  0.59553479  0.86267991  0.39729785     0.10000
S2650       S  0.62233556  0.95745060  0.42298509    -0.33400
S2651       S  0.58016700  0.82904091  0.38323120    -0.33400
H2652       H  0.59076396  0.83182728  0.35445446     0.28000
H2653       H  0.60759635  0.95988905  0.44973534     0.28000
H2654       H  0.64892197  0.91215087  0.39117370     0.18600
H2655       H  0.55746443  0.87191925  0.42027705     0.18600
C2656       C  0.88212108  0.88558671  0.12645594    -0.07200
C2657       C  0.87255851  0.90548610  0.10444914    -0.18400
C2658       C  0.89077313  0.92245874  0.08709216     0.10000
C2659       C  0.91957369  0.91988596  0.09149168    -0.07200
C2660       C  0.92946945  0.90063832  0.11332424    -0.18400
C2661       C  0.91135124  0.88348740  0.13072850     0.10000
S2662       S  0.87544100  0.94652740  0.05952072    -0.33400
S2663       S  0.92633677  0.85867654  0.15788105    -0.33400
H2664       H  0.95441832  0.86444678  0.15162541     0.28000
H2665       H  0.89957845  0.95942842  0.04786259     0.28000
H2666       H  0.85086587  0.90799074  0.09970246     0.18600
H2667       H  0.95167622  0.89881476  0.11642050     0.18600
N2668       N  0.97053187  0.96734148  0.55869740    -0.07200
N2669       N  0.95207017  0.96280656  0.57988589    -0.59300
N2670       N  0.53329944  0.94423471  0.53757768    -0.06900
N2671       N  0.55337565  0.92518012  0.54313577    -0.61500
N2672       N  0.53411058  0.96626808  0.55655310    -0.06500
N2673       N  0.55482483  0.96251596  0.57534788    -0.59300
N2674       N  0.97031989  0.94520811  0.53978640    -0.06200
N2675       N  0.95177481  0.92514819  0.54776788    -0.61800
C2676       C  0.94027492  0.93666047  0.57249253     0.95000
C2677       C  0.56689459  0.93679870  0.56661724     0.94700
N2678       N  0.53492827  0.95795921  0.94781072    -0.07400
N2679       N  0.55426985  0.95068806  0.92840288    -0.59900
N2680       N  0.97013863  0.93929287  0.97095886    -0.05500
N2681       N  0.94991174  0.91995271  0.96686196    -0.61200
N2682       N  0.97095753  0.95834806  0.94893171    -0.07400
N2683       N  0.95149216  0.95232304  0.92946791    -0.60200
N2684       N  0.53402951  0.93843770  0.96945686    -0.05200
N2685       N  0.55267626  0.91742082  0.96521647    -0.61300
Mn2686     Mn  0.50088751  0.94124426  0.50327540     1.18400
C2687       C  0.56529245  0.92557400  0.93974881     0.97000
C2688       C  0.93820046  0.92858343  0.94096410     0.97700
N2689       N  0.53341172  0.53798306  0.55447225    -0.07500
N2690       N  0.55201926  0.54591738  0.57437130    -0.63800
N2691       N  0.97098945  0.55570204  0.53197398    -0.06300
N2692       N  0.95163195  0.57603761  0.53589460    -0.64400
N2693       N  0.97102576  0.53681050  0.55425188    -0.07000
N2694       N  0.95169327  0.54385595  0.57369998    -0.64000
N2695       N  0.53336514  0.55684983  0.53224300    -0.05900
N2696       N  0.55197267  0.57780366  0.53648414    -0.64700
Mn2697     Mn  0.00250841  0.50169718  0.55807218     1.10700
C2698       C  0.56340570  0.57086048  0.56285813     0.98300
C2699       C  0.93958937  0.56804680  0.56174959     0.98300
N2700       N  0.97054187  0.52792443  0.94309500    -0.07000
N2701       N  0.95151733  0.53245522  0.92265266    -0.62300
N2702       N  0.53355868  0.55038343  0.96080816    -0.06300
N2703       N  0.55289914  0.56992641  0.95364093    -0.59100
N2704       N  0.53387787  0.52807388  0.94215684    -0.07600
N2705       N  0.55341509  0.53193409  0.92205595    -0.61900
N2706       N  0.97096230  0.55016062  0.96181782    -0.06600
N2707       N  0.95235328  0.57032660  0.95432391    -0.59100
Mn2708     Mn  0.50379501  0.99355564  0.94466389     1.20200
Mn2709     Mn  0.00287704  0.55281381  0.99636943     1.10100
Cl2710     Cl  0.50192229  0.49894658  0.50165544    -0.87100
C2711       C  0.94034497  0.55902568  0.92974895     0.95300
C2712       C  0.56513304  0.55814818  0.92932991     0.95100
C2713       C  0.64457443  0.62748517  0.85908194     0.85400
C2714       C  0.63968983  0.62626373  0.82521382    -0.54900
C2715       C  0.65729606  0.64347339  0.80892250     0.08300
C2716       C  0.67753033  0.66151603  0.82792753     0.19300
C2717       C  0.67561520  0.62074723  0.86319738    -0.55600
C2718       C  0.69280327  0.63843404  0.84689033     0.08400
C2719       C  0.64158193  0.66079360  0.86575793    -0.55100
C2720       C  0.65876242  0.67866354  0.84949828     0.09000
H2721       H  0.62265197  0.61491077  0.81460944     0.13500
H2722       H  0.69171788  0.67592522  0.81489638    -0.00800
H2723       H  0.68330723  0.60337924  0.87768955     0.13800
H2724       H  0.62694778  0.66950756  0.88179922     0.13600
C2725       C  0.64508778  0.85670711  0.87063378     0.85400
C2726       C  0.64468753  0.82296505  0.87597957    -0.54900
C2727       C  0.66117628  0.80706616  0.85719155     0.08300
C2728       C  0.67705962  0.82648343  0.83478897     0.19300
C2729       C  0.67627800  0.86459605  0.87279619    -0.55600
C2730       C  0.69293262  0.84892118  0.85402963     0.08400
C2731       C  0.63831511  0.86081445  0.83765402    -0.55100
C2732       C  0.65464173  0.84489396  0.81884796     0.09000
H2733       H  0.63206962  0.81246750  0.89295714     0.13500
H2734       H  0.69051053  0.81366034  0.81953531    -0.00800
H2735       H  0.68532745  0.88015141  0.88812973     0.13800
H2736       H  0.62196050  0.87540572  0.82982805     0.13600
C2737       C  0.64713062  0.87237920  0.63987513     0.85400
C2738       C  0.64053564  0.87506942  0.67332575    -0.54900
C2739       C  0.65692064  0.85778332  0.69111065     0.08300
C2740       C  0.67760581  0.83851943  0.67385268     0.19300
C2741       C  0.67858890  0.87793558  0.63701862    -0.55600
C2742       C  0.69450050  0.86023501  0.65483670     0.08400
C2743       C  0.64370292  0.83877263  0.63441072    -0.55100
C2744       C  0.65958793  0.82125515  0.65207064     0.09000
H2745       H  0.62361477  0.88823874  0.68211548     0.13500
H2746       H  0.69059978  0.82394109  0.68800851    -0.00800
H2747       H  0.68746549  0.89404815  0.62183708     0.13800
H2748       H  0.62934211  0.82913362  0.61871695     0.13600
C2749       C  0.64146555  0.64437035  0.62987326     0.85400
C2750       C  0.64125343  0.67832731  0.62462233    -0.54900
C2751       C  0.65904746  0.69368166  0.64229846     0.08300
C2752       C  0.67542798  0.67402640  0.66381413     0.19300
C2753       C  0.67216200  0.63589522  0.62601949    -0.55600
C2754       C  0.68989301  0.65090604  0.64407629     0.08400
C2755       C  0.63546997  0.64129921  0.66321697    -0.55100
C2756       C  0.65313788  0.65670414  0.68108556     0.09000
H2757       H  0.62837694  0.69018187  0.60907260     0.13500
H2758       H  0.68993421  0.68661615  0.67805277    -0.00800
H2759       H  0.67922907  0.61932010  0.61033807     0.13800
H2760       H  0.61872032  0.62772377  0.67194591     0.13600
C2761       C  0.86143494  0.62782199  0.85799379     0.85400
C2762       C  0.86480909  0.66165003  0.86180210    -0.54900
C2763       C  0.84663324  0.67839974  0.84546464     0.08300
C2764       C  0.82721813  0.65962136  0.82617424     0.19300
C2765       C  0.83053528  0.62170036  0.86435781    -0.55600
C2766       C  0.81274894  0.63847410  0.84785023     0.08400
C2767       C  0.86464617  0.62375736  0.82412998    -0.55100
C2768       C  0.84677622  0.64019576  0.80775809     0.09000
H2769       H  0.88033116  0.67152674  0.87608693     0.13500
H2770       H  0.81220424  0.67262004  0.81290217    -0.00800
H2771       H  0.82340961  0.60537341  0.88034083     0.13800
H2772       H  0.88049731  0.61087383  0.81312484     0.13600
C2773       C  0.85850864  0.63598097  0.62960415     0.85400
C2774       C  0.86137730  0.62847384  0.66256846    -0.54900
C2775       C  0.84447502  0.64444188  0.68052710     0.08300
C2776       C  0.82591156  0.66674246  0.66413427     0.19300
C2777       C  0.82708991  0.63137254  0.62363959    -0.55600
C2778       C  0.81006518  0.64801086  0.64128627     0.08400
C2779       C  0.86254686  0.66986260  0.62740833    -0.55100
C2780       C  0.84566986  0.68594519  0.64557236     0.09000
H2781       H  0.87573212  0.61198107  0.67108171     0.13500
H2782       H  0.81265448  0.68003463  0.67920137    -0.00800
H2783       H  0.81842369  0.61587570  0.60805700     0.13800
H2784       H  0.87761660  0.68021898  0.61278049     0.13600
C2785       C  0.86287839  0.86534395  0.64313306     0.85400
C2786       C  0.86731190  0.83175626  0.63847917    -0.54900
C2787       C  0.85082760  0.81412446  0.65580545     0.08300
C2788       C  0.83057613  0.83155975  0.67548048     0.19300
C2789       C  0.83137460  0.86942155  0.63721591    -0.55600
C2790       C  0.81460591  0.85165341  0.65398873     0.08400
C2791       C  0.86580603  0.87013483  0.67667623    -0.55100
C2792       C  0.84891415  0.85262389  0.69345190     0.09000
H2793       H  0.88187425  0.82273592  0.62251017     0.13500
H2794       H  0.81702708  0.81726367  0.68940689    -0.00800
H2795       H  0.82232271  0.88474243  0.62160810     0.13800
H2796       H  0.88019670  0.88587904  0.68636028     0.13600
C2797       C  0.86113909  0.85599422  0.87237857     0.85400
C2798       C  0.86661892  0.86147679  0.83910902    -0.54900
C2799       C  0.84938470  0.84626908  0.82081798     0.08300
C2800       C  0.82819254  0.82679019  0.83706126     0.19300
C2801       C  0.83018136  0.86300431  0.87662814    -0.55600
C2802       C  0.81294493  0.84751835  0.85839134     0.08400
C2803       C  0.86359380  0.82188756  0.87493478    -0.55100
C2804       C  0.84564416  0.80662098  0.85711096     0.09000
H2805       H  0.88299427  0.87565109  0.83054483     0.13500
H2806       H  0.81399745  0.81469670  0.82200720    -0.00800
H2807       H  0.82269734  0.87924281  0.89242683     0.13800
H2808       H  0.87924691  0.81063350  0.88791118     0.13600
C2809       C  0.85088636  0.84863094  0.78830382    -0.07200
C2810       C  0.83482978  0.87039150  0.77431521    -0.18400
C2811       C  0.83437143  0.87306275  0.74344586     0.10000
C2812       C  0.84951907  0.85259492  0.72610231    -0.07200
C2813       C  0.86569204  0.83096662  0.74018245    -0.18400
C2814       C  0.86721616  0.82929680  0.77102168     0.10000
S2815       S  0.81387269  0.90297565  0.72829926    -0.33400
S2816       S  0.89053284  0.80217722  0.78660685    -0.33400
H2817       H  0.89596786  0.81715877  0.81312165     0.28000
H2818       H  0.82211201  0.90101818  0.69865398     0.28000
H2819       H  0.82262369  0.88553082  0.78761950     0.18600
H2820       H  0.87758619  0.81548268  0.72704797     0.18600
C2821       C  0.84687511  0.71887530  0.64764538    -0.07200
C2822       C  0.87237951  0.73253658  0.65379660    -0.18400
C2823       C  0.87442458  0.76336423  0.65725434     0.10000
C2824       C  0.85045688  0.78123984  0.65401390    -0.07200
C2825       C  0.82498829  0.76752223  0.64818915    -0.18400
C2826       C  0.82302847  0.73683437  0.64464665     0.10000
S2827       S  0.90795564  0.77797544  0.66703528    -0.33400
S2828       S  0.78991083  0.72232018  0.63400995    -0.33400
H2829       H  0.80144284  0.70500671  0.61145263     0.28000
H2830       H  0.89806033  0.80290269  0.68218262     0.28000
H2831       H  0.89075014  0.71898473  0.65666548     0.18600
H2832       H  0.80654982  0.78097710  0.64528217     0.18600
C2833       C  0.84752379  0.64040708  0.77512661    -0.07200
C2834       C  0.82713869  0.62439529  0.75998010    -0.18400
C2835       C  0.82636671  0.62395765  0.72908432     0.10000
C2836       C  0.84544417  0.64145420  0.71295973    -0.07200
C2837       C  0.86680660  0.65604612  0.72798271    -0.18400
C2838       C  0.86859986  0.65501516  0.75882292     0.10000
S2839       S  0.80181909  0.59909012  0.71209853    -0.33400
S2840       S  0.89871484  0.67210890  0.77536055    -0.33400
H2841       H  0.88784330  0.67681154  0.80365663     0.28000
H2842       H  0.81542327  0.59626253  0.68478140     0.28000
H2843       H  0.81247953  0.61100720  0.77226091     0.18600
H2844       H  0.88232146  0.66822848  0.71550813     0.18600
C2845       C  0.84524959  0.71135266  0.84770062    -0.07200
C2846       C  0.84655288  0.72408128  0.87601080    -0.18400
C2847       C  0.84546605  0.75479104  0.88001796     0.10000
C2848       C  0.84445637  0.77371547  0.85508984    -0.07200
C2849       C  0.84209777  0.76101993  0.82696037    -0.18400
C2850       C  0.84219775  0.73030025  0.82285765     0.10000
S2851       S  0.84313823  0.76798140  0.91748503    -0.33400
S2852       S  0.83977674  0.71661517  0.78546663    -0.33400
H2853       H  0.83434724  0.74375342  0.77124449     0.28000
H2854       H  0.82520536  0.79160266  0.91071848     0.28000
H2855       H  0.84749032  0.70988788  0.89535888     0.18600
H2856       H  0.84072427  0.77530332  0.80783204     0.18600
C2857       C  0.72046483  0.64681070  0.64323302    -0.07200
C2858       C  0.73419664  0.64640417  0.61579548    -0.18400
C2859       C  0.76325681  0.64644175  0.61393588     0.10000
C2860       C  0.77917189  0.64705884  0.64035707    -0.07200
C2861       C  0.76515690  0.64722021  0.66756865    -0.18400
C2862       C  0.73637589  0.64582558  0.66929267     0.10000
S2863       S  0.77780592  0.64751372  0.57708510    -0.33400
S2864       S  0.72149081  0.64038333  0.70539246    -0.33400
H2865       H  0.70159904  0.62001245  0.69522561     0.28000
H2866       H  0.80184114  0.66358922  0.58379980     0.28000
H2867       H  0.72219455  0.64733362  0.59557255     0.18600
H2868       H  0.77667018  0.64774154  0.68800628     0.18600
C2869       C  0.65904582  0.78855390  0.65046756    -0.07200
C2870       C  0.68418057  0.77351064  0.64631404    -0.18400
C2871       C  0.68472063  0.74278899  0.64225504     0.10000
C2872       C  0.65971427  0.72652893  0.64301492    -0.07200
C2873       C  0.63456454  0.74168528  0.64695043    -0.18400
C2874       C  0.63398803  0.77229700  0.65130129     0.10000
S2875       S  0.71764098  0.72591422  0.63426352    -0.33400
S2876       S  0.60082962  0.78886763  0.65962699    -0.33400
H2877       H  0.61138921  0.81045081  0.67897320     0.28000
H2878       H  0.70681912  0.70564865  0.61371277     0.28000
H2879       H  0.70342585  0.78591567  0.64517398     0.18600
H2880       H  0.61529201  0.72935038  0.64817654     0.18600
C2881       C  0.78377912  0.85344638  0.65323796    -0.07200
C2882       C  0.76971772  0.85801380  0.67995333    -0.18400
C2883       C  0.74090387  0.86196764  0.68078366     0.10000
C2884       C  0.72536970  0.85987955  0.65445101    -0.07200
C2885       C  0.73932712  0.85481893  0.62763641    -0.18400
C2886       C  0.76836240  0.85153186  0.62673756     0.10000
S2887       S  0.72451736  0.87124182  0.71541717    -0.33400
S2888       S  0.78523587  0.84280998  0.59211895    -0.33400
H2889       H  0.76098190  0.84030680  0.57504963     0.28000
H2890       H  0.74901940  0.87610662  0.73154778     0.28000
H2891       H  0.78145881  0.85892217  0.70025072     0.18600
H2892       H  0.72732383  0.85264491  0.60754236     0.18600
C2893       C  0.65243086  0.84769325  0.78607211    -0.07200
C2894       C  0.65223045  0.87619415  0.77346724    -0.18400
C2895       C  0.65341172  0.88037167  0.74276640     0.10000
C2896       C  0.65403360  0.85544740  0.72383182    -0.07200
C2897       C  0.65318806  0.82698254  0.73644761    -0.18400
C2898       C  0.65210593  0.82287234  0.76712088     0.10000
S2899       S  0.65619516  0.91800559  0.72967202    -0.33400
S2900       S  0.64872796  0.78550381  0.78056353    -0.33400
H2901       H  0.62944133  0.79329160  0.80257773     0.28000
H2902       H  0.67442302  0.91169986  0.70621764     0.28000
H2903       H  0.65265366  0.89545590  0.78773467     0.18600
H2904       H  0.65301545  0.80766937  0.72223383     0.18600
C2905       C  0.72370242  0.85122483  0.85490930    -0.07200
C2906       C  0.73710353  0.84878915  0.88238844    -0.18400
C2907       C  0.76615167  0.84814181  0.88443431     0.10000
C2908       C  0.78225808  0.85023928  0.85835593    -0.07200
C2909       C  0.76883659  0.85324375  0.83100756    -0.18400
C2910       C  0.73992308  0.85407761  0.82907169     0.10000
S2911       S  0.78203981  0.84192896  0.92008932    -0.33400
S2912       S  0.72503561  0.86006548  0.79317533    -0.33400
H2913       H  0.70460016  0.87962126  0.80369622     0.28000
H2914       H  0.75786975  0.84551265  0.93719855     0.28000
H2915       H  0.72469320  0.84602299  0.90218888     0.18600
H2916       H  0.78100418  0.85526336  0.81092033     0.18600
C2917       C  0.65570665  0.64619945  0.77612594    -0.07200
C2918       C  0.65765842  0.67458276  0.76353399    -0.18400
C2919       C  0.65581520  0.67889976  0.73293873     0.10000
C2920       C  0.65233200  0.65427715  0.71399544    -0.07200
C2921       C  0.65001952  0.62592008  0.72663585    -0.18400
C2922       C  0.65209615  0.62150300  0.75718989     0.10000
S2923       S  0.65601276  0.71654455  0.71986065    -0.33400
S2924       S  0.65182505  0.58354424  0.76989659    -0.33400
H2925       H  0.67054478  0.58772494  0.79329947     0.28000
H2926       H  0.63397429  0.71150102  0.70022257     0.28000
H2927       H  0.65980301  0.69377489  0.77771689     0.18600
H2928       H  0.64797984  0.60673743  0.71242188     0.18600
C2929       C  0.72347785  0.63593494  0.84758847    -0.07200
C2930       C  0.73751728  0.64007726  0.87447237    -0.18400
C2931       C  0.76662530  0.64076965  0.87554603     0.10000
C2932       C  0.78206456  0.63637666  0.84930233    -0.07200
C2933       C  0.76791840  0.63152376  0.82274940    -0.18400
C2934       C  0.73895755  0.63102224  0.82156736     0.10000
S2935       S  0.78263067  0.64943384  0.91046585    -0.33400
S2936       S  0.72225313  0.62322137  0.78677216    -0.33400
H2937       H  0.74637867  0.61691097  0.77038868     0.28000
H2938       H  0.80420023  0.66665365  0.89838264     0.28000
H2939       H  0.72571872  0.64412963  0.89449239     0.18600
H2940       H  0.77967588  0.62840731  0.80270248     0.18600
C2941       C  0.65888081  0.71155631  0.85171613    -0.07200
C2942       C  0.68449485  0.72619418  0.85403823    -0.18400
C2943       C  0.68600836  0.75721732  0.85642873     0.10000
C2944       C  0.66129522  0.77406158  0.85674837    -0.07200
C2945       C  0.63570560  0.75932195  0.85500977    -0.18400
C2946       C  0.63422601  0.72857007  0.85165834     0.10000
S2947       S  0.71945334  0.77470258  0.86072917    -0.33400
S2948       S  0.60036629  0.71293574  0.84506423    -0.33400
H2949       H  0.60962185  0.69172099  0.82453541     0.31400
H2950       H  0.73563679  0.74886007  0.85853991     0.28000
H2951       H  0.70335572  0.71316730  0.85437796     0.18600
H2952       H  0.61666162  0.77209101  0.85463671     0.18600
C2953       C  0.58668801  0.57357830  0.91144417    -0.07200
C2954       C  0.60406361  0.59421379  0.92540192    -0.18400
C2955       C  0.62396272  0.61058944  0.90943179     0.10000
C2956       C  0.62585921  0.60739396  0.87821051    -0.07200
C2957       C  0.61013916  0.58460981  0.86503476    -0.18400
C2958       C  0.59038859  0.56839341  0.88086621     0.10000
S2959       S  0.64732811  0.63450372  0.92964555    -0.33400
S2960       S  0.56976145  0.54260518  0.85989084    -0.33400
H2961       H  0.54438819  0.55439758  0.86987120     0.28000
H2962       H  0.63347320  0.63314313  0.95702756     0.28000
H2963       H  0.60222625  0.59725898  0.94906748     0.18600
H2964       H  0.61285710  0.57885080  0.84210362     0.18600
C2965       C  0.59035557  0.92207207  0.58251756    -0.07200
C2966       C  0.60089116  0.93532546  0.60830538    -0.18400
C2967       C  0.62099482  0.92116351  0.62594998     0.10000
C2968       C  0.62952903  0.89190876  0.61897261    -0.07200
C2969       C  0.62192617  0.88082664  0.59097917    -0.18400
C2970       C  0.60242636  0.89512407  0.57293117     0.10000
S2971       S  0.63693754  0.94183882  0.65558117    -0.33400
S2972       S  0.59399797  0.87847617  0.53765104    -0.33400
H2973       H  0.60989783  0.85251744  0.54065545     0.28000
H2974       H  0.61958520  0.96685560  0.65417153     0.28000
H2975       H  0.59339051  0.95699525  0.61466299     0.18600
H2976       H  0.63147167  0.86082916  0.58281475     0.18600
C2977       C  0.87966639  0.61878625  0.61078539    -0.07200
C2978       C  0.87107811  0.59907046  0.58832415    -0.18400
C2979       C  0.89015755  0.58272278  0.57166842     0.10000
C2980       C  0.91866845  0.58585153  0.57719512    -0.07200
C2981       C  0.92764944  0.60532126  0.59914265    -0.18400
C2982       C  0.90871555  0.62178152  0.61599666     0.10000
S2983       S  0.87666382  0.55711087  0.54465826    -0.33400
S2984       S  0.92240731  0.64622490  0.64421298    -0.33400
H2985       H  0.95016788  0.63671133  0.64287832     0.28000
H2986       H  0.89905522  0.55894417  0.52481457     0.28000
H2987       H  0.84954847  0.59576483  0.58318805     0.18600
H2988       H  0.94970718  0.60742357  0.60315960     0.18600
C2989       C  0.62190383  0.62498780  0.61121423    -0.07200
C2990       C  0.60348586  0.63780858  0.59062656    -0.18400
C2991       C  0.58419714  0.62093709  0.57503261     0.10000
C2992       C  0.58346302  0.58988206  0.57876349    -0.07200
C2993       C  0.60194341  0.57666404  0.59868948    -0.18400
C2994       C  0.62102488  0.59361523  0.61492832     0.10000
S2995       S  0.55976859  0.64109436  0.55247425    -0.33400
S2996       S  0.64371645  0.57452208  0.64059126    -0.33400
H2997       H  0.63526679  0.54542619  0.63408117     0.28000
H2998       H  0.53646832  0.62607276  0.56388320     0.28000
H2999       H  0.60279851  0.66128118  0.58680096     0.18600
H3000       H  0.60132096  0.55285191  0.60158929     0.18600
C3001       C  0.91592963  0.91201526  0.92545408    -0.07200
C3002       C  0.90816075  0.88403154  0.93623608    -0.18400
C3003       C  0.88909008  0.86618583  0.92115169     0.10000
C3004       C  0.87938246  0.87500276  0.89274411    -0.07200
C3005       C  0.88509756  0.90430243  0.88371522    -0.18400
C3006       C  0.90275018  0.92283752  0.89966615     0.10000
S3007       S  0.87604407  0.83484012  0.94158751    -0.33400
S3008       S  0.90655269  0.96022963  0.88606798    -0.33400
H3009       H  0.90357769  0.97318370  0.91419279     0.28000
H3010       H  0.84863378  0.83830484  0.93161924     0.28000
H3011       H  0.91651693  0.87614977  0.95705019     0.18600
H3012       H  0.87538235  0.91323744  0.86405105     0.18600
C3013       C  0.91960286  0.57521280  0.91147926    -0.07200
C3014       C  0.90343239  0.59746078  0.92472661    -0.18400
C3015       C  0.88385940  0.61393941  0.90842093     0.10000
C3016       C  0.88090022  0.60896409  0.87752215    -0.07200
C3017       C  0.89587884  0.58513892  0.86513217    -0.18400
C3018       C  0.91544151  0.56905802  0.88120174     0.10000
S3019       S  0.86237030  0.64046338  0.92783310    -0.33400
S3020       S  0.93517450  0.54197930  0.86079630    -0.33400
H3021       H  0.96093633  0.55339089  0.86999081     0.28000
H3022       H  0.87266932  0.63509490  0.95643113     0.28000
H3023       H  0.90598155  0.60174821  0.94810735     0.18600
H3024       H  0.89262826  0.57816125  0.84267922     0.18600
C3025       C  0.62447828  0.87381184  0.89038937    -0.07200
C3026       C  0.63321620  0.89796816  0.90799741    -0.18400
C3027       C  0.61450461  0.91460284  0.92487461     0.10000
C3028       C  0.58615176  0.90746678  0.92439867    -0.07200
C3029       C  0.57705288  0.88352597  0.90744767    -0.18400
C3030       C  0.59561775  0.86679829  0.89029444     0.10000
S3031       S  0.62806542  0.94526098  0.94599031    -0.33400
S3032       S  0.58157336  0.83736861  0.86757202    -0.33400
H3033       H  0.55381583  0.83953282  0.87696595     0.28000
H3034       H  0.60794107  0.94453776  0.96852834     0.28000
H3035       H  0.65450639  0.90498758  0.90863744     0.18600
H3036       H  0.55508329  0.87851284  0.90706186     0.18600
C3037       C  0.88328464  0.88495160  0.62533356    -0.07200
C3038       C  0.87368066  0.90849184  0.60729308    -0.18400
C3039       C  0.89182493  0.92633033  0.59082331     0.10000
C3040       C  0.92043991  0.92048799  0.59138830    -0.07200
C3041       C  0.93050954  0.89802527  0.60980197    -0.18400
C3042       C  0.91254930  0.88083171  0.62736180     0.10000
S3043       S  0.87695350  0.95568042  0.56877447    -0.33400
S3044       S  0.92777577  0.85419516  0.65250892    -0.33400
H3045       H  0.95571656  0.86202846  0.64800619     0.28000
H3046       H  0.89941259  0.97537030  0.57100758     0.28000
H3047       H  0.85207758  0.91419874  0.60610108     0.18600
H3048       H  0.95266435  0.89409589  0.61046467     0.18600
loop_ 
_geom_bond_atom_site_label_1 
_geom_bond_atom_site_label_2 
_geom_bond_distance 
_geom_bond_site_symmetry_2 
_ccdc_geom_bond_type 
N1            N2   1.321       .  A
N1            N7   1.316       .  A
N1         Mn792   2.205       .  S
N2            C9   1.352       .  A
N3            N5   1.315       .  A
N3            N4   1.320       .  A
N3          Mn19   2.208       .  S
N4           C10   1.354       .  A
N5            N6   1.322       .  A
N5        Mn2316   2.210       .  S
N6           C10   1.356       .  A
N7            N8   1.320       .  A
N7        Mn1543   2.196       .  S
N8            C9   1.350       .  A
C9          C373   1.467       .  S
C10         C298   1.492       .  S
N11          N17   1.315       .  A
N11          N12   1.319       .  A
N11         Mn41   2.194       .  S
N12          C20   1.350       .  A
N13          N14   1.323       .  A
N13          N15   1.314       .  A
N13       Mn1924   2.213       .  S
N14          C21   1.358       .  A
N15          N16   1.317       .  A
N15       Mn1565   2.189       .  S
N16          C21   1.350       .  A
N17          N18   1.322       .  A
N17        Mn400   2.205       .  S
N18          C20   1.352       .  A
Mn19       N1531   2.194   1_455  S
Mn19       N1918   2.209   1_454  S
Mn19        N398   2.195   1_554  S
Mn19       Cl805   2.550       .  S
C20         C361   1.468       .  S
C21         C334   1.489       .  S
N22          N23   1.321       .  A
N22          N28   1.316       .  A
N22       Mn1554   2.203       .  S
N23          C31   1.353       .  A
N24          N26   1.317       .  A
N24          N25   1.321       .  A
N24        Mn423   2.206   1_554  S
N25          C32   1.352       .  A
N26          N27   1.320       .  A
N26         Mn30   2.204       .  S
N27          C32   1.351       .  A
N28          N29   1.319       .  A
N28       Mn1947   2.200   1_554  S
N29          C31   1.352       .  A
Mn30        N763   2.216   1_545  S
Mn30       N2291   2.205   1_545  S
Mn30       N1546   2.218       .  S
Mn30      Cl1567   2.551   1_545  S
C31         C325   1.481       .  S
C32         C313   1.468       .  S
N33          N34   1.320       .  A
N33          N39   1.314       .  A
N33       Mn2327   2.208   1_545  S
N34          C44   1.354       .  A
N35          N36   1.321       .  A
N35          N37   1.315       .  A
N35       Mn1566   2.202       .  S
N36          C45   1.354       .  A
N37          N38   1.320       .  A
N37        Mn803   2.210   1_545  S
N38          C45   1.355       .  A
N39          N40   1.323       .  A
N39         Mn42   2.208       .  S
N40          C44   1.356       .  A
Mn41       N1539   2.183   1_455  S
Mn41       N2319   2.202   1_455  S
Mn41        N799   2.193       .  S
Mn41      Cl1186   2.537       .  S
Mn42        N405   2.200       .  S
Mn42       N1933   2.198       .  S
Mn42       N1559   2.201       .  S
Mn42      Cl1948   2.549   1_545  S
Cl43       Mn781   2.554       .  S
Cl43      Mn1554   2.548   1_565  S
Cl43      Mn1184   2.538   1_554  S
Cl43      Mn1947   2.553   1_564  S
C44         C346   1.494       .  S
C45         C286   1.489       .  S
C46          C47   1.549       .  S
C46          C52   1.542       .  S
C46          C50   1.542       .  S
C46         C289   1.544       .  S
C47          H54   1.082       .  S
C47          C48   1.362       .  D
C48          C49   1.535       .  S
C48         C250   1.486       .  S
C49          C53   1.537       .  S
C49          C51   1.534       .  S
C49          H55   1.111       .  S
C50          H56   1.086       .  S
C50          C51   1.367       .  D
C51         C262   1.487       .  S
C52          H57   1.085       .  S
C52          C53   1.368       .  D
C53         C274   1.484       .  S
C58          C59   1.539       .  S
C58          C64   1.541       .  S
C58          C62   1.548       .  S
C58         C358   1.541       .  S
C59          H66   1.086       .  S
C59          C60   1.363       .  D
C60          C61   1.540       .  S
C60         C277   1.486       .  S
C61          C65   1.542       .  S
C61          C63   1.541       .  S
C61          H67   1.110       .  S
C62          H68   1.080       .  S
C62          C63   1.365       .  D
C63         C238   1.485       .  S
C64          H69   1.086       .  S
C64          C65   1.365       .  D
C65         C226   1.491       .  S
C70          C71   1.549       .  S
C70          C76   1.545       .  S
C70          C74   1.540       .  S
C70         C301   1.543       .  S
C71          H78   1.084       .  S
C71          C72   1.369       .  D
C72          C73   1.535       .  S
C72         C229   1.487       .  S
C73          C77   1.528       .  S
C73          C75   1.534       .  S
C73          H79   1.111       .  S
C74          H80   1.086       .  S
C74          C75   1.369       .  D
C75         C217   1.486       .  S
C76          H81   1.084       .  S
C76          C77   1.361       .  D
C77         C202   1.476       .  S
C82          C83   1.549       .  S
C82          C88   1.538       .  S
C82          C86   1.541       .  S
C82         C322   1.542       .  S
C83          H90   1.080       .  S
C83          C84   1.363       .  D
C84          C85   1.534       .  S
C84         C205   1.482       .  S
C85          C89   1.539       .  S
C85          C87   1.543       .  S
C85          H91   1.109       .  S
C86          H92   1.086       .  S
C86          C87   1.367       .  D
C87         C190   1.491       .  S
C88          H93   1.086       .  S
C88          C89   1.364       .  D
C89         C253   1.490       .  S
C94          C95   1.546       .  S
C94         C100   1.548       .  S
C94          C98   1.540       .  S
C94         C349   1.546       .  S
C95         H102   1.085       .  S
C95          C96   1.374       .  D
C96          C97   1.538       .  S
C96         C178   1.497       .  S
C97         C101   1.534       .  S
C97          C99   1.535       .  S
C97         H103   1.107       .  S
C98         H104   1.086       .  S
C98          C99   1.367       .  D
C99         C265   1.486       .  S
C100        H105   1.082       .  S
C100        C101   1.357       .  D
C101        C166   1.475       .  S
C106        C107   1.536       .  S
C106        C112   1.542       .  S
C106        C110   1.556       .  S
C106        C310   1.540       .  S
C107        H114   1.087       .  S
C107        C108   1.357       .  D
C108        C109   1.533       .  S
C108        C169   1.472       .  S
C109        C113   1.534       .  S
C109        C111   1.538       .  S
C109        H115   1.111       .  S
C110        H116   1.080       .  S
C110        C111   1.373       .  D
C111        C193   1.494       .  S
C112        H117   1.086       .  S
C112        C113   1.363       .  D
C113        C154   1.485       .  S
C118        C119   1.540       .  S
C118        C124   1.543       .  S
C118        C122   1.550       .  S
C118        C370   1.541       .  S
C119        H126   1.086       .  S
C119        C120   1.364       .  D
C120        C121   1.535       .  S
C120        C157   1.482       .  S
C121        C125   1.534       .  S
C121        C123   1.536       .  S
C121        H127   1.111       .  S
C122        H128   1.081       .  S
C122        C123   1.365       .  D
C123        C214   1.485       .  S
C124        H129   1.086       .  S
C124        C125   1.364       .  D
C125        C145   1.479       .  S
C130        C131   1.548       .  S
C130        C136   1.547       .  S
C130        C134   1.537       .  S
C130        C337   1.539       .  S
C131        H138   1.085       .  S
C131        C132   1.361       .  D
C132        C133   1.534       .  S
C132        C142   1.479       .  S
C133        C137   1.542       .  S
C133        C135   1.534       .  S
C133        H139   1.110       .  S
C134        H140   1.086       .  S
C134        C135   1.364       .  D
C135        C241   1.486       .  S
C136        H141   1.083       .  S
C136        C137   1.372       .  D
C137        C181   1.497       .  S
C142        C143   1.402       .  A
C142        C147   1.413       .  A
C143        C144   1.402       .  A
C143        H152   1.084       .  S
C144        C145   1.415       .  A
C144        S148   1.808       .  S
C145        C146   1.401       .  A
C146        C147   1.399       .  A
C146        H153   1.082       .  S
C147        S149   1.805       .  S
S148        H151   1.400       .  S
S149        H150   1.402       .  S
C154        C155   1.404       .  A
C154        C159   1.411       .  A
C155        C156   1.403       .  A
C155        H164   1.084       .  S
C156        C157   1.415       .  A
C156        S160   1.804       .  S
C157        C158   1.400       .  A
C158        C159   1.400       .  A
C158        H165   1.083       .  S
C159        S161   1.802       .  S
S160        H163   1.402       .  S
S161        H162   1.406       .  S
C166        C167   1.401       .  A
C166        C171   1.418       .  A
C167        C168   1.398       .  A
C167        H176   1.083       .  S
C168        C169   1.411       .  A
C168        S172   1.804       .  S
C169        C170   1.399       .  A
C170        C171   1.398       .  A
C170        H177   1.085       .  S
C171        S173   1.810       .  S
S172        H175   1.403       .  S
S173        H174   1.396       .  S
C178        C179   1.406       .  A
C178        C183   1.418       .  A
C179        C180   1.399       .  A
C179        H188   1.084       .  S
C180        C181   1.417       .  A
C180        S184   1.799       .  S
C181        C182   1.403       .  A
C182        C183   1.400       .  A
C182        H189   1.079       .  S
C183        S185   1.806       .  S
S184        H187   1.397       .  S
S185        H186   1.407       .  S
C190        C191   1.406       .  A
C190        C195   1.410       .  A
C191        C192   1.404       .  A
C191        H200   1.084       .  S
C192        C193   1.418       .  A
C192        S196   1.804       .  S
C193        C194   1.403       .  A
C194        C195   1.395       .  A
C194        H201   1.080       .  S
C195        S197   1.798       .  S
S196        H199   1.406       .  S
S197        H198   1.406       .  S
C202        C203   1.402       .  A
C202        C207   1.412       .  A
C203        C204   1.399       .  A
C203        H212   1.084       .  S
C204        C205   1.411       .  A
C204        S208   1.797       .  S
C205        C206   1.403       .  A
C206        C207   1.395       .  A
C206        H213   1.084       .  S
C207        S209   1.804       .  S
S208        H211   1.406       .  S
S209        H210   1.407       .  S
C214        C215   1.399       .  A
C214        C219   1.413       .  A
C215        C216   1.399       .  A
C215        H224   1.080       .  S
C216        C217   1.411       .  A
C216        S220   1.803       .  S
C217        C218   1.404       .  A
C218        C219   1.405       .  A
C218        H225   1.083       .  S
C219        S221   1.807       .  S
S220        H223   1.406       .  S
S221        H222   1.407       .  S
C226        C227   1.404       .  A
C226        C231   1.413       .  A
C227        C228   1.402       .  A
C227        H236   1.084       .  S
C228        C229   1.415       .  A
C228        S232   1.802       .  S
C229        C230   1.403       .  A
C230        C231   1.400       .  A
C230        H237   1.084       .  S
C231        S233   1.796       .  S
S232        H235   1.406       .  S
S233        H234   1.406       .  S
C238        C239   1.403       .  A
C238        C243   1.409       .  A
C239        C240   1.399       .  A
C239        H248   1.084       .  S
C240        C241   1.415       .  A
C240        S244   1.799       .  S
C241        C242   1.403       .  A
C242        C243   1.398       .  A
C242        H249   1.083       .  S
C243        S245   1.795       .  S
S244        H247   1.399       .  S
S245        H246   1.406       .  S
C250        C251   1.402       .  A
C250        C255   1.418       .  A
C251        C252   1.399       .  A
C251        H260   1.084       .  S
C252        C253   1.414       .  A
C252        S256   1.796       .  S
C253        C254   1.403       .  A
C254        C255   1.398       .  A
C254        H261   1.084       .  S
C255        S257   1.806       .  S
S256        H259   1.405       .  S
S257        H258   1.405       .  S
C262        C263   1.405       .  A
C262        C267   1.412       .  A
C263        C264   1.405       .  A
C263        H272   1.084       .  S
C264        C265   1.414       .  A
C264        S268   1.802       .  S
C265        C266   1.400       .  A
C266        C267   1.401       .  A
C266        H273   1.081       .  S
C267        S269   1.802       .  S
S268        H271   1.407       .  S
S269        H270   1.407       .  S
C274        C275   1.404       .  A
C274        C279   1.413       .  A
C275        C276   1.405       .  A
C275        H284   1.083       .  S
C276        C277   1.411       .  A
C276        S280   1.805       .  S
C277        C278   1.404       .  A
C278        C279   1.398       .  A
C278        H285   1.084       .  S
C279        S281   1.803       .  S
S280        H283   1.407       .  S
S281        H282   1.407       .  S
C286        C287   1.406       .  A
C286        C291   1.413       .  A
C287        C288   1.409       .  A
C287        H296   1.082       .  S
C288        C289   1.421       .  A
C288        S292   1.810       .  S
C289        C290   1.412       .  A
C290        C291   1.396       .  A
C290        H297   1.078       .  S
C291        S293   1.802       .  S
S292        H295   1.407       .  S
S293        H294   1.408       .  S
C298        C299   1.405       .  A
C298        C303   1.414       .  A
C299        C300   1.407       .  A
C299        H308   1.082       .  S
C300        C301   1.420       .  A
C300        S304   1.807       .  S
C301        C302   1.412       .  A
C302        C303   1.399       .  A
C302        H309   1.081       .  S
C303        S305   1.803       .  S
S304        H307   1.406       .  S
S305        H306   1.408       .  S
C310        C311   1.414       .  A
C310        C315   1.427       .  A
C311        C312   1.403       .  A
C311        H320   1.076       .  S
C312        C313   1.407       .  A
C312        S316   1.807       .  S
C313        C314   1.395       .  A
C314        C315   1.401       .  A
C314        H321   1.083       .  S
C315        S317   1.813       .  S
S316        H319   1.404       .  S
S317        H318   1.407       .  S
C322        C323   1.413       .  A
C322        C327   1.425       .  A
C323        C324   1.396       .  A
C323        H332   1.073       .  S
C324        C325   1.410       .  A
C324        S328   1.804       .  S
C325        C326   1.400       .  A
C326        C327   1.406       .  A
C326        H333   1.083       .  S
C327        S329   1.812       .  S
S328        H331   1.408       .  S
S329        H330   1.407       .  S
C334        C335   1.403       .  A
C334        C339   1.416       .  A
C335        C336   1.402       .  A
C335        H344   1.084       .  S
C336        C337   1.424       .  A
C336        S340   1.800       .  S
C337        C338   1.409       .  A
C338        C339   1.397       .  A
C338        H345   1.082       .  S
C339        S341   1.802       .  S
S340        H343   1.403       .  S
S341        H342   1.408       .  S
C346        C347   1.407       .  A
C346        C351   1.414       .  A
C347        C348   1.411       .  A
C347        H356   1.082       .  S
C348        C349   1.422       .  A
C348        S352   1.810       .  S
C349        C350   1.411       .  A
C350        C351   1.396       .  A
C350        H357   1.076       .  S
C351        S353   1.802       .  S
S352        H355   1.406       .  S
S353        H354   1.408       .  S
C358        C359   1.415       .  A
C358        C363   1.426       .  A
C359        C360   1.400       .  A
C359        H368   1.075       .  S
C360        C361   1.404       .  A
C360        S364   1.805       .  S
C361        C362   1.396       .  A
C362        C363   1.403       .  A
C362        H369   1.083       .  S
C363        S365   1.812       .  S
S364        H367   1.406       .  S
S365        H366   1.406       .  S
C370        C371   1.416       .  A
C370        C375   1.425       .  A
C371        C372   1.398       .  A
C371        H380   1.075       .  S
C372        C373   1.403       .  A
C372        S376   1.806       .  S
C373        C374   1.397       .  A
C374        C375   1.404       .  A
C374        H381   1.083       .  S
C375        S377   1.811       .  S
S376        H379   1.406       .  S
S377        H378   1.406       .  S
N382        N383   1.322       .  A
N382        N388   1.317       .  A
N382      Mn1173   2.213       .  S
N383        C390   1.353       .  A
N384        N386   1.315       .  A
N384        N385   1.318       .  A
N384       Mn400   2.201       .  S
N385        C391   1.352       .  A
N386        N387   1.323       .  A
N386      Mn2697   2.210       .  S
N387        C391   1.357       .  A
N388        N389   1.320       .  A
N388      Mn1924   2.197       .  S
N389        C390   1.350       .  A
C390        C754   1.471       .  S
C391        C679   1.493       .  S
N392        N398   1.316       .  A
N392        N393   1.321       .  A
N392       Mn422   2.208       .  S
N393        C401   1.353       .  A
N394        N395   1.322       .  A
N394        N396   1.315       .  A
N394      Mn1543   2.207   1_556  S
N395        C402   1.357       .  A
N396        N397   1.317       .  A
N396      Mn1946   2.194       .  S
N397        C402   1.351       .  A
N398        N399   1.320       .  A
N399        C401   1.350       .  A
Mn400      N1912   2.205   1_455  S
Mn400      N1537   2.208   1_455  S
Mn400     Cl1186   2.550       .  S
C401        C742   1.469       .  S
C402        C715   1.489       .  S
N403        N404   1.321       .  A
N403        N409   1.314       .  A
N403      Mn1935   2.201       .  S
N404        C412   1.354       .  A
N405        N407   1.317       .  A
N405        N406   1.320       .  A
N406        C413   1.351       .  A
N407        N408   1.320       .  A
N407       Mn411   2.205       .  S
N408        C413   1.352       .  A
N409        N410   1.319       .  A
N409      Mn1566   2.196       .  S
N410        C412   1.352       .  A
Mn411      N1144   2.204   1_545  S
Mn411      N2672   2.211   1_545  S
Mn411      N1927   2.204       .  S
Mn411     Cl1948   2.549   1_545  S
C412        C706   1.483       .  S
C413        C694   1.466       .  S
N414        N415   1.318       .  A
N414        N420   1.315       .  A
N414      Mn2708   2.200   1_545  S
N415        C425   1.352       .  A
N416        N417   1.323       .  A
N416        N418   1.315       .  A
N416      Mn1947   2.215       .  S
N417        C426   1.357       .  A
N418        N419   1.318       .  A
N418      Mn1184   2.193   1_545  S
N419        C426   1.351       .  A
N420        N421   1.323       .  A
N420       Mn423   2.210       .  S
N421        C425   1.357       .  A
Mn422      N1920   2.201   1_455  S
Mn422      N2700   2.207   1_455  S
Mn422      N1180   2.207       .  S
Mn422      Cl805   2.541   1_556  S
Mn423      N1552   2.203   1_556  S
Mn423      N1940   2.208       .  S
Mn423     Cl1567   2.554   1_546  S
Cl424     Mn1162   2.549       .  S
Cl424     Mn1935   2.550   1_565  S
Cl424      Mn803   2.544       .  S
Cl424     Mn1566   2.546   1_565  S
C425        C727   1.490       .  S
C426        C667   1.487       .  S
C427        C428   1.550       .  S
C427        C433   1.540       .  S
C427        C431   1.540       .  S
C427        C670   1.541       .  S
C428        H435   1.081       .  S
C428        C429   1.364       .  D
C429        C430   1.536       .  S
C429        C631   1.486       .  S
C430        C434   1.537       .  S
C430        C432   1.539       .  S
C430        H436   1.110       .  S
C431        H437   1.086       .  S
C431        C432   1.367       .  D
C432        C643   1.491       .  S
C433        H438   1.086       .  S
C433        C434   1.365       .  D
C434        C655   1.486       .  S
C439        C440   1.543       .  S
C439        C445   1.540       .  S
C439        C443   1.548       .  S
C439        C739   1.544       .  S
C440        H447   1.086       .  S
C440        C441   1.367       .  D
C441        C442   1.540       .  S
C441        C658   1.490       .  S
C442        C446   1.541       .  S
C442        C444   1.540       .  S
C442        H448   1.110       .  S
C443        H449   1.080       .  S
C443        C444   1.363       .  D
C444        C619   1.486       .  S
C445        H450   1.086       .  S
C445        C446   1.364       .  D
C446        C607   1.489       .  S
C451        C452   1.548       .  S
C451        C457   1.546       .  S
C451        C455   1.540       .  S
C451        C682   1.542       .  S
C452        H459   1.084       .  S
C452        C453   1.368       .  D
C453        C454   1.535       .  S
C453        C610   1.485       .  S
C454        C458   1.530       .  S
C454        C456   1.536       .  S
C454        H460   1.111       .  S
C455        H461   1.086       .  S
C455        C456   1.369       .  D
C456        C598   1.487       .  S
C457        H462   1.084       .  S
C457        C458   1.361       .  D
C458        C583   1.479       .  S
C463        C464   1.551       .  S
C463        C469   1.540       .  S
C463        C467   1.539       .  S
C463        C703   1.541       .  S
C464        H471   1.079       .  S
C464        C465   1.364       .  D
C465        C466   1.534       .  S
C465        C586   1.484       .  S
C466        C470   1.537       .  S
C466        C468   1.541       .  S
C466        H472   1.108       .  S
C467        H473   1.086       .  S
C467        C468   1.366       .  D
C468        C571   1.489       .  S
C469        H474   1.086       .  S
C469        C470   1.364       .  D
C470        C634   1.487       .  S
C475        C476   1.546       .  S
C475        C481   1.550       .  S
C475        C479   1.541       .  S
C475        C730   1.546       .  S
C476        H483   1.086       .  S
C476        C477   1.373       .  D
C477        C478   1.538       .  S
C477        C559   1.498       .  S
C478        C482   1.535       .  S
C478        C480   1.535       .  S
C478        H484   1.106       .  S
C479        H485   1.086       .  S
C479        C480   1.367       .  D
C480        C646   1.490       .  S
C481        H486   1.081       .  S
C481        C482   1.358       .  D
C482        C547   1.477       .  S
C487        C488   1.537       .  S
C487        C493   1.543       .  S
C487        C491   1.552       .  S
C487        C691   1.539       .  S
C488        H495   1.086       .  S
C488        C489   1.359       .  D
C489        C490   1.534       .  S
C489        C550   1.474       .  S
C490        C494   1.535       .  S
C490        C492   1.537       .  S
C490        H496   1.110       .  S
C491        H497   1.079       .  S
C491        C492   1.370       .  D
C492        C574   1.489       .  S
C493        H498   1.086       .  S
C493        C494   1.364       .  D
C494        C535   1.486       .  S
C499        C500   1.541       .  S
C499        C505   1.543       .  S
C499        C503   1.552       .  S
C499        C751   1.544       .  S
C500        H507   1.086       .  S
C500        C501   1.366       .  D
C501        C502   1.536       .  S
C501        C538   1.484       .  S
C502        C506   1.534       .  S
C502        C504   1.535       .  S
C502        H508   1.111       .  S
C503        H509   1.080       .  S
C503        C504   1.365       .  D
C504        C595   1.486       .  S
C505        H510   1.086       .  S
C505        C506   1.365       .  D
C506        C526   1.479       .  S
C511        C512   1.547       .  S
C511        C517   1.548       .  S
C511        C515   1.537       .  S
C511        C718   1.539       .  S
C512        H519   1.086       .  S
C512        C513   1.359       .  D
C513        C514   1.533       .  S
C513        C523   1.479       .  S
C514        C518   1.540       .  S
C514        C516   1.532       .  S
C514        H520   1.110       .  S
C515        H521   1.086       .  S
C515        C516   1.364       .  D
C516        C622   1.482       .  S
C517        H522   1.083       .  S
C517        C518   1.372       .  D
C518        C562   1.495       .  S
C523        C524   1.402       .  A
C523        C528   1.413       .  A
C524        C525   1.402       .  A
C524        H533   1.084       .  S
C525        C526   1.414       .  A
C525        S529   1.805       .  S
C526        C527   1.401       .  A
C527        C528   1.400       .  A
C527        H534   1.083       .  S
C528        S530   1.805       .  S
S529        H532   1.401       .  S
S530        H531   1.402       .  S
C535        C536   1.404       .  A
C535        C540   1.411       .  A
C536        C537   1.402       .  A
C536        H545   1.084       .  S
C537        C538   1.415       .  A
C537        S541   1.802       .  S
C538        C539   1.401       .  A
C539        C540   1.401       .  A
C539        H546   1.083       .  S
C540        S542   1.801       .  S
S541        H544   1.404       .  S
S542        H543   1.406       .  S
C547        C548   1.401       .  A
C547        C552   1.418       .  A
C548        C549   1.398       .  A
C548        H557   1.083       .  S
C549        C550   1.412       .  A
C549        S553   1.805       .  S
C550        C551   1.400       .  A
C551        C552   1.399       .  A
C551        H558   1.084       .  S
C552        S554   1.809       .  S
S553        H556   1.403       .  S
S554        H555   1.397       .  S
C559        C560   1.408       .  A
C559        C564   1.419       .  A
C560        C561   1.401       .  A
C560        H569   1.084       .  S
C561        C562   1.415       .  A
C561        S565   1.800       .  S
C562        C563   1.401       .  A
C563        C564   1.398       .  A
C563        H570   1.078       .  S
C564        S566   1.806       .  S
S565        H568   1.406       .  S
S566        H567   1.407       .  S
C571        C572   1.405       .  A
C571        C576   1.411       .  A
C572        C573   1.402       .  A
C572        H581   1.084       .  S
C573        C574   1.417       .  A
C573        S577   1.804       .  S
C574        C575   1.402       .  A
C575        C576   1.394       .  A
C575        H582   1.080       .  S
C576        S578   1.795       .  S
S577        H580   1.406       .  S
S578        H579   1.406       .  S
C583        C584   1.401       .  A
C583        C588   1.414       .  A
C584        C585   1.398       .  A
C584        H593   1.084       .  S
C585        C586   1.411       .  A
C585        S589   1.795       .  S
C586        C587   1.403       .  A
C587        C588   1.397       .  A
C587        H594   1.084       .  S
C588        S590   1.804       .  S
S589        H592   1.406       .  S
S590        H591   1.407       .  S
C595        C596   1.399       .  A
C595        C600   1.414       .  A
C596        C597   1.399       .  A
C596        H605   1.080       .  S
C597        C598   1.412       .  A
C597        S601   1.803       .  S
C598        C599   1.405       .  A
C599        C600   1.407       .  A
C599        H606   1.083       .  S
C600        S602   1.807       .  S
S601        H604   1.407       .  S
S602        H603   1.407       .  S
C607        C608   1.405       .  A
C607        C612   1.412       .  A
C608        C609   1.401       .  A
C608        H617   1.084       .  S
C609        C610   1.415       .  A
C609        S613   1.803       .  S
C610        C611   1.403       .  A
C611        C612   1.398       .  A
C611        H618   1.084       .  S
C612        S614   1.797       .  S
S613        H616   1.405       .  S
S614        H615   1.406       .  S
C619        C620   1.406       .  A
C619        C624   1.409       .  A
C620        C621   1.404       .  A
C620        H629   1.083       .  S
C621        C622   1.412       .  A
C621        S625   1.807       .  S
C622        C623   1.402       .  A
C623        C624   1.397       .  A
C623        H630   1.084       .  S
C624        S626   1.795       .  S
S625        H628   1.407       .  S
S626        H627   1.406       .  S
C631        C632   1.402       .  A
C631        C636   1.416       .  A
C632        C633   1.398       .  A
C632        H641   1.084       .  S
C633        C634   1.413       .  A
C633        S637   1.798       .  S
C634        C635   1.404       .  A
C635        C636   1.398       .  A
C635        H642   1.084       .  S
C636        S638   1.804       .  S
S637        H640   1.405       .  S
S638        H639   1.406       .  S
C643        C644   1.405       .  A
C643        C648   1.412       .  A
C644        C645   1.405       .  A
C644        H653   1.084       .  S
C645        C646   1.415       .  A
C645        S649   1.801       .  S
C646        C647   1.401       .  A
C647        C648   1.400       .  A
C647        H654   1.080       .  S
C648        S650   1.803       .  S
S649        H652   1.407       .  S
S650        H651   1.407       .  S
C655        C656   1.402       .  A
C655        C660   1.415       .  A
C656        C657   1.405       .  A
C656        H665   1.083       .  S
C657        C658   1.413       .  A
C657        S661   1.804       .  S
C658        C659   1.404       .  A
C659        C660   1.400       .  A
C659        H666   1.084       .  S
C660        S662   1.803       .  S
S661        H664   1.407       .  S
S662        H663   1.407       .  S
C667        C668   1.403       .  A
C667        C672   1.414       .  A
C668        C669   1.407       .  A
C668        H677   1.082       .  S
C669        C670   1.422       .  A
C669        S673   1.810       .  S
C670        C671   1.411       .  A
C671        C672   1.396       .  A
C671        H678   1.077       .  S
C672        S674   1.803       .  S
S673        H676   1.407       .  S
S674        H675   1.408       .  S
C679        C680   1.406       .  A
C679        C684   1.416       .  A
C680        C681   1.407       .  A
C680        H689   1.082       .  S
C681        C682   1.419       .  A
C681        S685   1.808       .  S
C682        C683   1.410       .  A
C683        C684   1.401       .  A
C683        H690   1.079       .  S
C684        S686   1.812       .  S
S685        H688   1.406       .  S
S686        H687   1.406       .  S
C691        C692   1.415       .  A
C691        C696   1.426       .  A
C692        C693   1.401       .  A
C692        H701   1.075       .  S
C693        C694   1.405       .  A
C693        S697   1.806       .  S
C694        C695   1.395       .  A
C695        C696   1.400       .  A
C695        H702   1.083       .  S
C696        S698   1.813       .  S
S697        H700   1.405       .  S
S698        H699   1.407       .  S
C703        C704   1.412       .  A
C703        C708   1.425       .  A
C704        C705   1.396       .  A
C704        H713   1.073       .  S
C705        C706   1.411       .  A
C705        S709   1.804       .  S
C706        C707   1.401       .  A
C707        C708   1.405       .  A
C707        H714   1.082       .  S
C708        S710   1.812       .  S
S709        H712   1.408       .  S
S710        H711   1.407       .  S
C715        C716   1.404       .  A
C715        C720   1.415       .  A
C716        C717   1.402       .  A
C716        H725   1.084       .  S
C717        C718   1.423       .  A
C717        S721   1.801       .  S
C718        C719   1.410       .  A
C719        C720   1.397       .  A
C719        H726   1.082       .  S
C720        S722   1.803       .  S
S721        H724   1.404       .  S
S722        H723   1.408       .  S
C727        C728   1.404       .  A
C727        C732   1.414       .  A
C728        C729   1.409       .  A
C728        H737   1.082       .  S
C729        C730   1.423       .  A
C729        S733   1.810       .  S
C730        C731   1.411       .  A
C731        C732   1.396       .  A
C731        H738   1.076       .  S
C732        S734   1.803       .  S
S733        H736   1.406       .  S
S734        H735   1.408       .  S
C739        C740   1.416       .  A
C739        C744   1.426       .  A
C740        C741   1.399       .  A
C740        H749   1.073       .  S
C741        C742   1.404       .  A
C741        S745   1.806       .  S
C742        C743   1.397       .  A
C743        C744   1.404       .  A
C743        H750   1.083       .  S
C744        S746   1.811       .  S
S745        H748   1.405       .  S
S746        H747   1.407       .  S
C751        C752   1.416       .  A
C751        C756   1.426       .  A
C752        C753   1.399       .  A
C752        H761   1.075       .  S
C753        C754   1.403       .  A
C753        S757   1.805       .  S
C754        C755   1.398       .  A
C755        C756   1.406       .  A
C755        H762   1.083       .  S
C756        S758   1.811       .  S
S757        H760   1.406       .  S
S758        H759   1.406       .  S
N763        N764   1.323       .  A
N763        N769   1.317       .  A
N764        C771   1.354       .  A
N765        N767   1.316       .  A
N765        N766   1.318       .  A
N765       Mn781   2.201       .  S
N766        C772   1.352       .  A
N767        N768   1.323       .  A
N767      Mn1554   2.213   1_565  S
N768        C772   1.357       .  A
N769        N770   1.321       .  A
N769      Mn2305   2.200       .  S
N770        C771   1.351       .  A
C771       C1135   1.474       .  S
C772       C1060   1.491       .  S
N773        N779   1.316       .  A
N773        N774   1.321       .  A
N773       Mn803   2.205       .  S
N774        C782   1.353       .  A
N775        N776   1.322       .  A
N775        N777   1.315       .  A
N775      Mn2686   2.209       .  S
N776        C783   1.357       .  A
N777        N778   1.318       .  A
N777      Mn2327   2.199       .  S
N778        C783   1.352       .  A
N779        N780   1.321       .  A
N779      Mn1162   2.201       .  S
N780        C782   1.351       .  A
Mn781      N2293   2.204   1_455  S
Mn781      N2680   2.206   1_454  S
Mn781      N1160   2.210   1_554  S
C782       C1123   1.470       .  S
C783       C1096   1.488       .  S
N784        N785   1.322       .  A
N784        N790   1.315       .  A
N784      Mn2316   2.202       .  S
N785        C793   1.355       .  A
N786        N788   1.317       .  A
N786        N787   1.322       .  A
N786      Mn1185   2.208   1_554  S
N787        C794   1.352       .  A
N788        N789   1.320       .  A
N788       Mn792   2.206       .  S
N789        C794   1.352       .  A
N790        N791   1.318       .  A
N790      Mn2709   2.195   1_554  S
N791        C793   1.351       .  A
Mn792      N1529   2.209       .  S
Mn792      N2308   2.199       .  S
Mn792     Cl2329   2.549   1_554  S
C793       C1087   1.484       .  S
C794       C1075   1.470       .  S
N795        N796   1.318       .  A
N795        N801   1.313       .  A
N795      Mn1565   2.200       .  S
N796        C806   1.353       .  A
N797        N798   1.322       .  A
N797        N799   1.314       .  A
N797      Mn2328   2.211       .  S
N798        C807   1.356       .  A
N799        N800   1.318       .  A
N800        C807   1.352       .  A
N801        N802   1.322       .  A
N801       Mn804   2.204       .  S
N802        C806   1.356       .  A
Mn803      N2301   2.205   1_455  S
Mn803      N1557   2.210   1_465  S
Mn804      N1167   2.201       .  S
Mn804      N2695   2.193       .  S
Mn804      N2321   2.208       .  S
Mn804     Cl2710   2.549       .  S
Cl805     Mn2316   2.548       .  S
Cl805     Mn2709   2.549   1_554  S
C806       C1108   1.491       .  S
C807       C1048   1.487       .  S
C808        C809   1.550       .  S
C808        C814   1.540       .  S
C808        C812   1.538       .  S
C808       C1051   1.540       .  S
C809        H816   1.082       .  S
C809        C810   1.365       .  D
C810        C811   1.536       .  S
C810       C1012   1.489       .  S
C811        C815   1.538       .  S
C811        C813   1.535       .  S
C811        H817   1.111       .  S
C812        H818   1.086       .  S
C812        C813   1.364       .  D
C813       C1024   1.483       .  S
C814        H819   1.086       .  S
C814        C815   1.367       .  D
C815       C1036   1.484       .  S
C820        C821   1.542       .  S
C820        C826   1.539       .  S
C820        C824   1.548       .  S
C820       C1120   1.543       .  S
C821        H828   1.086       .  S
C821        C822   1.366       .  D
C822        C823   1.540       .  S
C822       C1039   1.487       .  S
C823        C827   1.542       .  S
C823        C825   1.540       .  S
C823        H829   1.110       .  S
C824        H830   1.081       .  S
C824        C825   1.365       .  D
C825       C1000   1.486       .  S
C826        H831   1.086       .  S
C826        C827   1.364       .  D
C827        C988   1.492       .  S
C832        C833   1.549       .  S
C832        C838   1.545       .  S
C832        C836   1.537       .  S
C832       C1063   1.541       .  S
C833        H840   1.085       .  S
C833        C834   1.370       .  D
C834        C835   1.538       .  S
C834        C991   1.490       .  S
C835        C839   1.530       .  S
C835        C837   1.537       .  S
C835        H841   1.111       .  S
C836        H842   1.086       .  S
C836        C837   1.367       .  D
C837        C979   1.487       .  S
C838        H843   1.084       .  S
C838        C839   1.360       .  D
C839        C964   1.480       .  S
C844        C845   1.550       .  S
C844        C850   1.539       .  S
C844        C848   1.538       .  S
C844       C1084   1.541       .  S
C845        H852   1.080       .  S
C845        C846   1.364       .  D
C846        C847   1.535       .  S
C846        C967   1.484       .  S
C847        C851   1.539       .  S
C847        C849   1.541       .  S
C847        H853   1.108       .  S
C848        H854   1.086       .  S
C848        C849   1.366       .  D
C849        C952   1.489       .  S
C850        H855   1.086       .  S
C850        C851   1.365       .  D
C851       C1015   1.489       .  S
C856        C857   1.544       .  S
C856        C862   1.550       .  S
C856        C860   1.539       .  S
C856       C1111   1.542       .  S
C857        H864   1.085       .  S
C857        C858   1.372       .  D
C858        C859   1.537       .  S
C858        C940   1.493       .  S
C859        C863   1.535       .  S
C859        C861   1.533       .  S
C859        H865   1.108       .  S
C860        H866   1.086       .  S
C860        C861   1.365       .  D
C861       C1027   1.483       .  S
C862        H867   1.083       .  S
C862        C863   1.359       .  D
C863        C928   1.477       .  S
C868        C869   1.536       .  S
C868        C874   1.542       .  S
C868        C872   1.551       .  S
C868       C1072   1.539       .  S
C869        H876   1.086       .  S
C869        C870   1.358       .  D
C870        C871   1.538       .  S
C870        C931   1.475       .  S
C871        C875   1.538       .  S
C871        C873   1.541       .  S
C871        H877   1.110       .  S
C872        H878   1.080       .  S
C872        C873   1.371       .  D
C873        C955   1.494       .  S
C874        H879   1.086       .  S
C874        C875   1.365       .  D
C875        C916   1.492       .  S
C880        C881   1.542       .  S
C880        C886   1.543       .  S
C880        C884   1.552       .  S
C880       C1132   1.544       .  S
C881        H888   1.086       .  S
C881        C882   1.367       .  D
C882        C883   1.535       .  S
C882        C919   1.488       .  S
C883        C887   1.531       .  S
C883        C885   1.536       .  S
C883        H889   1.111       .  S
C884        H890   1.082       .  S
C884        C885   1.369       .  D
C885        C976   1.487       .  S
C886        H891   1.086       .  S
C886        C887   1.362       .  D
C887        C907   1.477       .  S
C892        C893   1.547       .  S
C892        C898   1.549       .  S
C892        C896   1.536       .  S
C892       C1099   1.538       .  S
C893        H900   1.086       .  S
C893        C894   1.361       .  D
C894        C895   1.533       .  S
C894        C904   1.478       .  S
C895        C899   1.536       .  S
C895        C897   1.532       .  S
C895        H901   1.110       .  S
C896        H902   1.086       .  S
C896        C897   1.364       .  D
C897       C1003   1.482       .  S
C898        H903   1.083       .  S
C898        C899   1.371       .  D
C899        C943   1.490       .  S
C904        C905   1.402       .  A
C904        C909   1.413       .  A
C905        C906   1.402       .  A
C905        H914   1.084       .  S
C906        C907   1.415       .  A
C906        S910   1.808       .  S
C907        C908   1.401       .  A
C908        C909   1.398       .  A
C908        H915   1.083       .  S
C909        S911   1.805       .  S
S910        H913   1.400       .  S
S911        H912   1.402       .  S
C916        C917   1.406       .  A
C916        C921   1.413       .  A
C917        C918   1.406       .  A
C917        H926   1.084       .  S
C918        C919   1.416       .  A
C918        S922   1.803       .  S
C919        C920   1.401       .  A
C920        C921   1.396       .  A
C920        H927   1.084       .  S
C921        S923   1.793       .  S
S922        H925   1.404       .  S
S923        H924   1.401       .  S
C928        C929   1.401       .  A
C928        C933   1.417       .  A
C929        C930   1.399       .  A
C929        H938   1.082       .  S
C930        C931   1.412       .  A
C930        S934   1.804       .  S
C931        C932   1.400       .  A
C932        C933   1.399       .  A
C932        H939   1.084       .  S
C933        S935   1.809       .  S
S934        H937   1.403       .  S
S935        H936   1.397       .  S
C940        C941   1.406       .  A
C940        C945   1.417       .  A
C941        C942   1.399       .  A
C941        H950   1.084       .  S
C942        C943   1.414       .  A
C942        S946   1.800       .  S
C943        C944   1.401       .  A
C944        C945   1.399       .  A
C944        H951   1.079       .  S
C945        S947   1.805       .  S
S946        H949   1.405       .  S
S947        H948   1.406       .  S
C952        C953   1.405       .  A
C952        C957   1.409       .  A
C953        C954   1.402       .  A
C953        H962   1.084       .  S
C954        C955   1.421       .  A
C954        S958   1.807       .  S
C955        C956   1.405       .  A
C956        C957   1.395       .  A
C956        H963   1.080       .  S
C957        S959   1.798       .  S
S958        H961   1.401       .  S
S959        H960   1.406       .  S
C964        C965   1.402       .  A
C964        C969   1.414       .  A
C965        C966   1.399       .  A
C965        H974   1.084       .  S
C966        C967   1.411       .  A
C966        S970   1.797       .  S
C967        C968   1.403       .  A
C968        C969   1.396       .  A
C968        H975   1.084       .  S
C969        S971   1.804       .  S
S970        H973   1.406       .  S
S971        H972   1.407       .  S
C976        C977   1.401       .  A
C976        C981   1.412       .  A
C977        C978   1.399       .  A
C977        H986   1.080       .  S
C978        C979   1.410       .  A
C978        S982   1.803       .  S
C979        C980   1.406       .  A
C980        C981   1.407       .  A
C980        H987   1.083       .  S
C981        S983   1.807       .  S
S982        H985   1.406       .  S
S983        H984   1.407       .  S
C988        C989   1.405       .  A
C988        C993   1.412       .  A
C989        C990   1.402       .  A
C989        H998   1.084       .  S
C990        C991   1.416       .  A
C990        S994   1.801       .  S
C991        C992   1.404       .  A
C992        C993   1.400       .  A
C992        H999   1.084       .  S
C993        S995   1.797       .  S
S994        H997   1.406       .  S
S995        H996   1.406       .  S
C1000      C1001   1.405       .  A
C1000      C1005   1.409       .  A
C1001      C1002   1.404       .  A
C1001      H1010   1.083       .  S
C1002      C1003   1.413       .  A
C1002      S1006   1.807       .  S
C1003      C1004   1.402       .  A
C1004      C1005   1.397       .  A
C1004      H1011   1.084       .  S
C1005      S1007   1.795       .  S
S1006      H1009   1.406       .  S
S1007      H1008   1.406       .  S
C1012      C1013   1.404       .  A
C1012      C1017   1.417       .  A
C1013      C1014   1.400       .  A
C1013      H1022   1.084       .  S
C1014      C1015   1.413       .  A
C1014      S1018   1.799       .  S
C1015      C1016   1.404       .  A
C1016      C1017   1.398       .  A
C1016      H1023   1.084       .  S
C1017      S1019   1.805       .  S
S1018      H1021   1.405       .  S
S1019      H1020   1.405       .  S
C1024      C1025   1.404       .  A
C1024      C1029   1.410       .  A
C1025      C1026   1.403       .  A
C1025      H1034   1.084       .  S
C1026      C1027   1.414       .  A
C1026      S1030   1.802       .  S
C1027      C1028   1.401       .  A
C1028      C1029   1.400       .  A
C1028      H1035   1.079       .  S
C1029      S1031   1.804       .  S
S1030      H1033   1.406       .  S
S1031      H1032   1.407       .  S
C1036      C1037   1.403       .  A
C1036      C1041   1.414       .  A
C1037      C1038   1.405       .  A
C1037      H1046   1.083       .  S
C1038      C1039   1.412       .  A
C1038      S1042   1.804       .  S
C1039      C1040   1.403       .  A
C1040      C1041   1.398       .  A
C1040      H1047   1.084       .  S
C1041      S1043   1.803       .  S
S1042      H1045   1.407       .  S
S1043      H1044   1.407       .  S
C1048      C1049   1.404       .  A
C1048      C1053   1.415       .  A
C1049      C1050   1.407       .  A
C1049      H1058   1.083       .  S
C1050      C1051   1.422       .  A
C1050      S1054   1.810       .  S
C1051      C1052   1.410       .  A
C1052      C1053   1.396       .  A
C1052      H1059   1.078       .  S
C1053      S1055   1.802       .  S
S1054      H1057   1.407       .  S
S1055      H1056   1.407       .  S
C1060      C1061   1.406       .  A
C1060      C1065   1.415       .  A
C1061      C1062   1.408       .  A
C1061      H1070   1.082       .  S
C1062      C1063   1.420       .  A
C1062      S1066   1.806       .  S
C1063      C1064   1.410       .  A
C1064      C1065   1.396       .  A
C1064      H1071   1.081       .  S
C1065      S1067   1.803       .  S
S1066      H1069   1.407       .  S
S1067      H1068   1.408       .  S
C1072      C1073   1.415       .  A
C1072      C1077   1.425       .  A
C1073      C1074   1.402       .  A
C1073      H1082   1.077       .  S
C1074      C1075   1.407       .  A
C1074      S1078   1.805       .  S
C1075      C1076   1.396       .  A
C1076      C1077   1.401       .  A
C1076      H1083   1.083       .  S
C1077      S1079   1.813       .  S
S1078      H1081   1.405       .  S
S1079      H1080   1.406       .  S
C1084      C1085   1.411       .  A
C1084      C1089   1.426       .  A
C1085      C1086   1.396       .  A
C1085      H1094   1.073       .  S
C1086      C1087   1.412       .  A
C1086      S1090   1.804       .  S
C1087      C1088   1.401       .  A
C1088      C1089   1.405       .  A
C1088      H1095   1.082       .  S
C1089      S1091   1.813       .  S
S1090      H1093   1.408       .  S
S1091      H1092   1.406       .  S
C1096      C1097   1.403       .  A
C1096      C1101   1.414       .  A
C1097      C1098   1.401       .  A
C1097      H1106   1.084       .  S
C1098      C1099   1.423       .  A
C1098      S1102   1.800       .  S
C1099      C1100   1.411       .  A
C1100      C1101   1.398       .  A
C1100      H1107   1.083       .  S
C1101      S1103   1.803       .  S
S1102      H1105   1.405       .  S
S1103      H1104   1.408       .  S
C1108      C1109   1.406       .  A
C1108      C1113   1.415       .  A
C1109      C1110   1.409       .  A
C1109      H1118   1.082       .  S
C1110      C1111   1.422       .  A
C1110      S1114   1.810       .  S
C1111      C1112   1.410       .  A
C1112      C1113   1.395       .  A
C1112      H1119   1.078       .  S
C1113      S1115   1.801       .  S
S1114      H1117   1.407       .  S
S1115      H1116   1.407       .  S
C1120      C1121   1.416       .  A
C1120      C1125   1.426       .  A
C1121      C1122   1.400       .  A
C1121      H1130   1.075       .  S
C1122      C1123   1.405       .  A
C1122      S1126   1.806       .  S
C1123      C1124   1.397       .  A
C1124      C1125   1.404       .  A
C1124      H1131   1.083       .  S
C1125      S1127   1.812       .  S
S1126      H1129   1.405       .  S
S1127      H1128   1.406       .  S
C1132      C1133   1.415       .  A
C1132      C1137   1.426       .  A
C1133      C1134   1.402       .  A
C1133      H1142   1.077       .  S
C1134      C1135   1.407       .  A
C1134      S1138   1.805       .  S
C1135      C1136   1.398       .  A
C1136      C1137   1.405       .  A
C1136      H1143   1.083       .  S
C1137      S1139   1.811       .  S
S1138      H1141   1.406       .  S
S1139      H1140   1.407       .  S
N1144      N1145   1.321       .  A
N1144      N1150   1.316       .  A
N1145      C1152   1.351       .  A
N1146      N1148   1.315       .  A
N1146      N1147   1.318       .  A
N1146     Mn1162   2.200       .  S
N1147      C1153   1.352       .  A
N1148      N1149   1.322       .  A
N1148     Mn1935   2.208   1_565  S
N1149      C1153   1.356       .  A
N1150      N1151   1.322       .  A
N1150     Mn2686   2.207       .  S
N1151      C1152   1.353       .  A
C1152      C1516   1.472       .  S
C1153      C1441   1.487       .  S
N1154      N1160   1.315       .  A
N1154      N1155   1.320       .  A
N1154     Mn1184   2.201       .  S
N1155      C1163   1.352       .  A
N1156      N1157   1.324       .  A
N1156      N1158   1.315       .  A
N1156     Mn2305   2.218   1_556  S
N1157      C1164   1.359       .  A
N1158      N1159   1.319       .  A
N1158     Mn2708   2.200       .  S
N1159      C1164   1.352       .  A
N1160      N1161   1.322       .  A
N1161      C1163   1.354       .  A
Mn1162     N2674   2.203   1_455  S
Mn1162     N2299   2.210   1_455  S
C1163      C1504   1.477       .  S
C1164      C1477   1.496       .  S
N1165      N1166   1.321       .  A
N1165      N1171   1.315       .  A
N1165     Mn2697   2.199       .  S
N1166      C1174   1.354       .  A
N1167      N1169   1.318       .  A
N1167      N1168   1.320       .  A
N1168      C1175   1.351       .  A
N1169      N1170   1.320       .  A
N1169     Mn1173   2.206       .  S
N1170      C1175   1.352       .  A
N1171      N1172   1.316       .  A
N1171     Mn2328   2.186       .  S
N1172      C1174   1.349       .  A
Mn1173     N1910   2.209       .  S
Mn1173     N2689   2.205       .  S
Mn1173    Cl2710   2.548       .  S
C1174      C1468   1.477       .  S
C1175      C1456   1.465       .  S
N1176      N1177   1.320       .  A
N1176      N1182   1.315       .  A
N1176     Mn1946   2.207       .  S
N1177      C1187   1.354       .  A
N1178      N1179   1.323       .  A
N1178      N1180   1.316       .  A
N1178     Mn2709   2.214       .  S
N1179      C1188   1.356       .  A
N1180      N1181   1.320       .  A
N1181      C1188   1.354       .  A
N1182      N1183   1.322       .  A
N1182     Mn1185   2.202       .  S
N1183      C1187   1.355       .  A
Mn1184     N2682   2.191   1_455  S
Mn1184     N1938   2.204   1_465  S
Mn1185     N2314   2.198   1_556  S
Mn1185     N2702   2.210       .  S
Mn1185    Cl2329   2.548       .  S
Cl1186    Mn2697   2.547       .  S
Cl1186    Mn2328   2.549       .  S
C1187      C1489   1.489       .  S
C1188      C1429   1.491       .  S
C1189      C1190   1.551       .  S
C1189      C1195   1.543       .  S
C1189      C1193   1.542       .  S
C1189      C1432   1.546       .  S
C1190      H1197   1.081       .  S
C1190      C1191   1.364       .  D
C1191      C1192   1.533       .  S
C1191      C1393   1.484       .  S
C1192      C1196   1.534       .  S
C1192      C1194   1.536       .  S
C1192      H1198   1.111       .  S
C1193      H1199   1.086       .  S
C1193      C1194   1.368       .  D
C1194      C1405   1.487       .  S
C1195      H1200   1.086       .  S
C1195      C1196   1.367       .  D
C1196      C1417   1.484       .  S
C1201      C1202   1.542       .  S
C1201      C1207   1.535       .  S
C1201      C1205   1.546       .  S
C1201      C1501   1.542       .  S
C1202      H1209   1.083       .  S
C1202      C1203   1.365       .  D
C1203      C1204   1.540       .  S
C1203      C1420   1.487       .  S
C1204      C1208   1.542       .  S
C1204      C1206   1.544       .  S
C1204      H1210   1.110       .  S
C1205      H1211   1.085       .  S
C1205      C1206   1.367       .  D
C1206      C1381   1.492       .  S
C1207      H1212   1.086       .  S
C1207      C1208   1.365       .  D
C1208      C1369   1.490       .  S
C1213      C1214   1.548       .  S
C1213      C1219   1.547       .  S
C1213      C1217   1.538       .  S
C1213      C1444   1.539       .  S
C1214      H1221   1.084       .  S
C1214      C1215   1.369       .  D
C1215      C1216   1.535       .  S
C1215      C1372   1.489       .  S
C1216      C1220   1.530       .  S
C1216      C1218   1.533       .  S
C1216      H1222   1.111       .  S
C1217      H1223   1.086       .  S
C1217      C1218   1.366       .  D
C1218      C1360   1.482       .  S
C1219      H1224   1.085       .  S
C1219      C1220   1.363       .  D
C1220      C1345   1.478       .  S
C1225      C1226   1.549       .  S
C1225      C1231   1.537       .  S
C1225      C1229   1.536       .  S
C1225      C1465   1.535       .  S
C1226      H1233   1.080       .  S
C1226      C1227   1.362       .  D
C1227      C1228   1.535       .  S
C1227      C1348   1.483       .  S
C1228      C1232   1.540       .  S
C1228      C1230   1.542       .  S
C1228      H1234   1.109       .  S
C1229      H1235   1.086       .  S
C1229      C1230   1.365       .  D
C1230      C1333   1.488       .  S
C1231      H1236   1.086       .  S
C1231      C1232   1.363       .  D
C1232      C1396   1.486       .  S
C1237      C1238   1.546       .  S
C1237      C1243   1.550       .  S
C1237      C1241   1.540       .  S
C1237      C1492   1.546       .  S
C1238      H1245   1.086       .  S
C1238      C1239   1.374       .  D
C1239      C1240   1.538       .  S
C1239      C1321   1.497       .  S
C1240      C1244   1.535       .  S
C1240      C1242   1.534       .  S
C1240      H1246   1.107       .  S
C1241      H1247   1.086       .  S
C1241      C1242   1.364       .  D
C1242      C1408   1.486       .  S
C1243      H1248   1.081       .  S
C1243      C1244   1.359       .  D
C1244      C1309   1.477       .  S
C1249      C1250   1.536       .  S
C1249      C1255   1.542       .  S
C1249      C1253   1.552       .  S
C1249      C1453   1.536       .  S
C1250      H1257   1.087       .  S
C1250      C1251   1.357       .  D
C1251      C1252   1.537       .  S
C1251      C1312   1.474       .  S
C1252      C1256   1.533       .  S
C1252      C1254   1.540       .  S
C1252      H1258   1.110       .  S
C1253      H1259   1.080       .  S
C1253      C1254   1.371       .  D
C1254      C1336   1.491       .  S
C1255      H1260   1.086       .  S
C1255      C1256   1.363       .  D
C1256      C1297   1.485       .  S
C1261      C1262   1.542       .  S
C1261      C1267   1.542       .  S
C1261      C1265   1.552       .  S
C1261      C1513   1.545       .  S
C1262      H1269   1.086       .  S
C1262      C1263   1.365       .  D
C1263      C1264   1.536       .  S
C1263      C1300   1.483       .  S
C1264      C1268   1.535       .  S
C1264      C1266   1.534       .  S
C1264      H1270   1.111       .  S
C1265      H1271   1.079       .  S
C1265      C1266   1.365       .  D
C1266      C1357   1.484       .  S
C1267      H1272   1.086       .  S
C1267      C1268   1.365       .  D
C1268      C1288   1.482       .  S
C1273      C1274   1.548       .  S
C1273      C1279   1.549       .  S
C1273      C1277   1.541       .  S
C1273      C1480   1.546       .  S
C1274      H1281   1.085       .  S
C1274      C1275   1.361       .  D
C1275      C1276   1.534       .  S
C1275      C1285   1.481       .  S
C1276      C1280   1.540       .  S
C1276      C1278   1.535       .  S
C1276      H1282   1.110       .  S
C1277      H1283   1.085       .  S
C1277      C1278   1.368       .  D
C1278      C1384   1.492       .  S
C1279      H1284   1.083       .  S
C1279      C1280   1.371       .  D
C1280      C1324   1.496       .  S
C1285      C1286   1.402       .  A
C1285      C1290   1.415       .  A
C1286      C1287   1.402       .  A
C1286      H1295   1.084       .  S
C1287      C1288   1.415       .  A
C1287      S1291   1.805       .  S
C1288      C1289   1.402       .  A
C1289      C1290   1.401       .  A
C1289      H1296   1.082       .  S
C1290      S1292   1.806       .  S
S1291      H1294   1.401       .  S
S1292      H1293   1.401       .  S
C1297      C1298   1.402       .  A
C1297      C1302   1.412       .  A
C1298      C1299   1.402       .  A
C1298      H1307   1.084       .  S
C1299      C1300   1.416       .  A
C1299      S1303   1.802       .  S
C1300      C1301   1.401       .  A
C1301      C1302   1.398       .  A
C1301      H1308   1.084       .  S
C1302      S1304   1.795       .  S
S1303      H1306   1.402       .  S
S1304      H1305   1.402       .  S
C1309      C1310   1.400       .  A
C1309      C1314   1.417       .  A
C1310      C1311   1.398       .  A
C1310      H1319   1.082       .  S
C1311      C1312   1.412       .  A
C1311      S1315   1.804       .  S
C1312      C1313   1.400       .  A
C1313      C1314   1.400       .  A
C1313      H1320   1.084       .  S
C1314      S1316   1.809       .  S
S1315      H1318   1.403       .  S
S1316      H1317   1.398       .  S
C1321      C1322   1.406       .  A
C1321      C1326   1.418       .  A
C1322      C1323   1.401       .  A
C1322      H1331   1.084       .  S
C1323      C1324   1.416       .  A
C1323      S1327   1.799       .  S
C1324      C1325   1.402       .  A
C1325      C1326   1.399       .  A
C1325      H1332   1.079       .  S
C1326      S1328   1.805       .  S
S1327      H1330   1.399       .  S
S1328      H1329   1.406       .  S
C1333      C1334   1.405       .  A
C1333      C1338   1.409       .  A
C1334      C1335   1.401       .  A
C1334      H1343   1.083       .  S
C1335      C1336   1.420       .  A
C1335      S1339   1.806       .  S
C1336      C1337   1.404       .  A
C1337      C1338   1.392       .  A
C1337      H1344   1.080       .  S
C1338      S1340   1.797       .  S
S1339      H1342   1.400       .  S
S1340      H1341   1.406       .  S
C1345      C1346   1.402       .  A
C1345      C1350   1.413       .  A
C1346      C1347   1.399       .  A
C1346      H1355   1.084       .  S
C1347      C1348   1.411       .  A
C1347      S1351   1.798       .  S
C1348      C1349   1.403       .  A
C1349      C1350   1.397       .  A
C1349      H1356   1.084       .  S
C1350      S1352   1.803       .  S
S1351      H1354   1.406       .  S
S1352      H1353   1.406       .  S
C1357      C1358   1.399       .  A
C1357      C1362   1.413       .  A
C1358      C1359   1.398       .  A
C1358      H1367   1.080       .  S
C1359      C1360   1.409       .  A
C1359      S1363   1.802       .  S
C1360      C1361   1.404       .  A
C1361      C1362   1.406       .  A
C1361      H1368   1.083       .  S
C1362      S1364   1.807       .  S
S1363      H1366   1.407       .  S
S1364      H1365   1.407       .  S
C1369      C1370   1.404       .  A
C1369      C1374   1.412       .  A
C1370      C1371   1.400       .  A
C1370      H1379   1.084       .  S
C1371      C1372   1.416       .  A
C1371      S1375   1.801       .  S
C1372      C1373   1.405       .  A
C1373      C1374   1.400       .  A
C1373      H1380   1.084       .  S
C1374      S1376   1.797       .  S
S1375      H1378   1.405       .  S
S1376      H1377   1.405       .  S
C1381      C1382   1.405       .  A
C1381      C1386   1.410       .  A
C1382      C1383   1.402       .  A
C1382      H1391   1.084       .  S
C1383      C1384   1.417       .  A
C1383      S1387   1.800       .  S
C1384      C1385   1.405       .  A
C1385      C1386   1.399       .  A
C1385      H1392   1.083       .  S
C1386      S1388   1.795       .  S
S1387      H1390   1.398       .  S
S1388      H1389   1.406       .  S
C1393      C1394   1.404       .  A
C1393      C1398   1.415       .  A
C1394      C1395   1.399       .  A
C1394      H1403   1.084       .  S
C1395      C1396   1.411       .  A
C1395      S1399   1.799       .  S
C1396      C1397   1.404       .  A
C1397      C1398   1.398       .  A
C1397      H1404   1.084       .  S
C1398      S1400   1.806       .  S
S1399      H1402   1.405       .  S
S1400      H1401   1.405       .  S
C1405      C1406   1.405       .  A
C1405      C1410   1.412       .  A
C1406      C1407   1.404       .  A
C1406      H1415   1.084       .  S
C1407      C1408   1.414       .  A
C1407      S1411   1.801       .  S
C1408      C1409   1.399       .  A
C1409      C1410   1.399       .  A
C1409      H1416   1.079       .  S
C1410      S1412   1.803       .  S
S1411      H1414   1.407       .  S
S1412      H1413   1.407       .  S
C1417      C1418   1.404       .  A
C1417      C1422   1.413       .  A
C1418      C1419   1.407       .  A
C1418      H1427   1.083       .  S
C1419      C1420   1.411       .  A
C1419      S1423   1.805       .  S
C1420      C1421   1.404       .  A
C1421      C1422   1.398       .  A
C1421      H1428   1.084       .  S
C1422      S1424   1.804       .  S
S1423      H1426   1.407       .  S
S1424      H1425   1.406       .  S
C1429      C1430   1.405       .  A
C1429      C1434   1.414       .  A
C1430      C1431   1.409       .  A
C1430      H1439   1.082       .  S
C1431      C1432   1.422       .  A
C1431      S1435   1.810       .  S
C1432      C1433   1.412       .  A
C1433      C1434   1.398       .  A
C1433      H1440   1.077       .  S
C1434      S1436   1.802       .  S
S1435      H1438   1.406       .  S
S1436      H1437   1.408       .  S
C1441      C1442   1.404       .  A
C1441      C1446   1.413       .  A
C1442      C1443   1.406       .  A
C1442      H1451   1.082       .  S
C1443      C1444   1.421       .  A
C1443      S1447   1.806       .  S
C1444      C1445   1.410       .  A
C1445      C1446   1.398       .  A
C1445      H1452   1.082       .  S
C1446      S1448   1.804       .  S
S1447      H1450   1.407       .  S
S1448      H1449   1.408       .  S
C1453      C1454   1.414       .  A
C1453      C1458   1.426       .  A
C1454      C1455   1.400       .  A
C1454      H1463   1.076       .  S
C1455      C1456   1.405       .  A
C1455      S1459   1.805       .  S
C1456      C1457   1.395       .  A
C1457      C1458   1.400       .  A
C1457      H1464   1.083       .  S
C1458      S1460   1.814       .  S
S1459      H1462   1.406       .  S
S1460      H1461   1.406       .  S
C1465      C1466   1.409       .  A
C1465      C1470   1.425       .  A
C1466      C1467   1.393       .  A
C1466      H1475   1.073       .  S
C1467      C1468   1.412       .  A
C1467      S1471   1.804       .  S
C1468      C1469   1.400       .  A
C1469      C1470   1.403       .  A
C1469      H1476   1.083       .  S
C1470      S1472   1.813       .  S
S1471      H1474   1.408       .  S
S1472      H1473   1.407       .  S
C1477      C1478   1.404       .  A
C1477      C1482   1.417       .  A
C1478      C1479   1.405       .  A
C1478      H1487   1.083       .  S
C1479      C1480   1.424       .  A
C1479      S1483   1.801       .  S
C1480      C1481   1.411       .  A
C1481      C1482   1.400       .  A
C1481      H1488   1.082       .  S
C1482      S1484   1.803       .  S
S1483      H1486   1.404       .  S
S1484      H1485   1.408       .  S
C1489      C1490   1.404       .  A
C1489      C1494   1.412       .  A
C1490      C1491   1.408       .  A
C1490      H1499   1.082       .  S
C1491      C1492   1.424       .  A
C1491      S1495   1.810       .  S
C1492      C1493   1.412       .  A
C1493      C1494   1.397       .  A
C1493      H1500   1.075       .  S
C1494      S1496   1.803       .  S
S1495      H1498   1.406       .  S
S1496      H1497   1.408       .  S
C1501      C1502   1.414       .  A
C1501      C1506   1.428       .  A
C1502      C1503   1.400       .  A
C1502      H1511   1.081       .  S
C1503      C1504   1.408       .  A
C1503      S1507   1.804       .  S
C1504      C1505   1.400       .  A
C1505      C1506   1.403       .  A
C1505      H1512   1.084       .  S
C1506      S1508   1.806       .  S
S1507      H1510   1.406       .  S
S1508      H1509   1.404       .  S
C1513      C1514   1.417       .  A
C1513      C1518   1.426       .  A
C1514      C1515   1.401       .  A
C1514      H1523   1.074       .  S
C1515      C1516   1.404       .  A
C1515      S1519   1.805       .  S
C1516      C1517   1.397       .  A
C1517      C1518   1.405       .  A
C1517      H1524   1.083       .  S
C1518      S1520   1.810       .  S
S1519      H1522   1.405       .  S
S1520      H1521   1.406       .  S
N1525      N1526   1.321       .  A
N1525      N1531   1.315       .  A
N1525     Mn2316   2.204   1_655  S
N1526      C1533   1.352       .  A
N1527      N1529   1.315       .  A
N1527      N1528   1.319       .  A
N1527     Mn1543   2.208       .  S
N1528      C1534   1.354       .  A
N1529      N1530   1.323       .  A
N1530      C1534   1.357       .  A
N1531      N1532   1.319       .  A
N1532      C1533   1.350       .  A
C1533      C1897   1.466       .  S
C1534      C1822   1.494       .  S
N1535      N1541   1.315       .  A
N1535      N1536   1.319       .  A
N1535     Mn1565   2.191       .  S
N1536      C1544   1.350       .  A
N1537      N1538   1.322       .  A
N1537      N1539   1.314       .  A
N1538      C1545   1.358       .  A
N1539      N1540   1.315       .  A
N1540      C1545   1.349       .  A
N1541      N1542   1.320       .  A
N1541     Mn1924   2.199       .  S
N1542      C1544   1.351       .  A
Mn1543     N1922   2.198   1_554  S
Mn1543    Cl2329   2.548   1_554  S
C1544      C1885   1.464       .  S
C1545      C1858   1.484       .  S
N1546      N1547   1.324       .  A
N1546      N1552   1.315       .  A
N1547      C1555   1.358       .  A
N1548      N1550   1.318       .  A
N1548      N1549   1.322       .  A
N1548     Mn1947   2.214   1_654  S
N1549      C1556   1.353       .  A
N1550      N1551   1.321       .  A
N1550     Mn1554   2.212   1_655  S
N1551      C1556   1.353       .  A
N1552      N1553   1.319       .  A
N1553      C1555   1.352       .  A
Mn1554     N2287   2.211   1_445  S
C1555      C1849   1.497       .  S
C1556      C1837   1.475       .  S
N1557      N1558   1.320       .  A
N1557      N1563   1.315       .  A
N1558      C1568   1.355       .  A
N1559      N1560   1.321       .  A
N1559      N1561   1.314       .  A
N1560      C1569   1.355       .  A
N1561      N1562   1.320       .  A
N1561     Mn2327   2.204   1_545  S
N1562      C1569   1.354       .  A
N1563      N1564   1.321       .  A
N1563     Mn1566   2.197   1_655  S
N1564      C1568   1.353       .  A
Mn1565     N2323   2.193       .  S
Mn1565    Cl2710   2.536       .  S
Mn1566     N1929   2.201   1_455  S
Cl1567    Mn2305   2.552       .  S
Cl1567    Mn2708   2.541   1_554  S
C1568      C1870   1.485       .  S
C1569      C1810   1.489       .  S
C1570      C1571   1.549       .  S
C1570      C1576   1.542       .  S
C1570      C1574   1.539       .  S
C1570      C1813   1.541       .  S
C1571      H1578   1.083       .  S
C1571      C1572   1.363       .  D
C1572      C1573   1.536       .  S
C1572      C1774   1.487       .  S
C1573      C1577   1.538       .  S
C1573      C1575   1.538       .  S
C1573      H1579   1.111       .  S
C1574      H1580   1.086       .  S
C1574      C1575   1.366       .  D
C1575      C1786   1.490       .  S
C1576      H1581   1.085       .  S
C1576      C1577   1.367       .  D
C1577      C1798   1.485       .  S
C1582      C1583   1.542       .  S
C1582      C1588   1.537       .  S
C1582      C1586   1.547       .  S
C1582      C1882   1.538       .  S
C1583      H1590   1.086       .  S
C1583      C1584   1.364       .  D
C1584      C1585   1.539       .  S
C1584      C1801   1.487       .  S
C1585      C1589   1.541       .  S
C1585      C1587   1.541       .  S
C1585      H1591   1.110       .  S
C1586      H1592   1.080       .  S
C1586      C1587   1.365       .  D
C1587      C1762   1.487       .  S
C1588      H1593   1.086       .  S
C1588      C1589   1.363       .  D
C1589      C1750   1.488       .  S
C1594      C1595   1.548       .  S
C1594      C1600   1.546       .  S
C1594      C1598   1.543       .  S
C1594      C1825   1.545       .  S
C1595      H1602   1.084       .  S
C1595      C1596   1.369       .  D
C1596      C1597   1.535       .  S
C1596      C1753   1.485       .  S
C1597      C1601   1.529       .  S
C1597      C1599   1.534       .  S
C1597      H1603   1.111       .  S
C1598      H1604   1.086       .  S
C1598      C1599   1.370       .  D
C1599      C1741   1.489       .  S
C1600      H1605   1.084       .  S
C1600      C1601   1.360       .  D
C1601      C1726   1.477       .  S
C1606      C1607   1.551       .  S
C1606      C1612   1.541       .  S
C1606      C1610   1.537       .  S
C1606      C1846   1.543       .  S
C1607      H1614   1.082       .  S
C1607      C1608   1.366       .  D
C1608      C1609   1.534       .  S
C1608      C1729   1.482       .  S
C1609      C1613   1.541       .  S
C1609      C1611   1.541       .  S
C1609      H1615   1.109       .  S
C1610      H1616   1.086       .  S
C1610      C1611   1.365       .  D
C1611      C1714   1.490       .  S
C1612      H1617   1.086       .  S
C1612      C1613   1.366       .  D
C1613      C1777   1.490       .  S
C1618      C1619   1.546       .  S
C1618      C1624   1.549       .  S
C1618      C1622   1.544       .  S
C1618      C1873   1.549       .  S
C1619      H1626   1.086       .  S
C1619      C1620   1.373       .  D
C1620      C1621   1.537       .  S
C1620      C1702   1.496       .  S
C1621      C1625   1.533       .  S
C1621      C1623   1.536       .  S
C1621      H1627   1.108       .  S
C1622      H1628   1.086       .  S
C1622      C1623   1.369       .  D
C1623      C1789   1.490       .  S
C1624      H1629   1.077       .  S
C1624      C1625   1.355       .  D
C1625      C1690   1.475       .  S
C1630      C1631   1.536       .  S
C1630      C1636   1.545       .  S
C1630      C1634   1.558       .  S
C1630      C1834   1.545       .  S
C1631      H1638   1.087       .  S
C1631      C1632   1.357       .  D
C1632      C1633   1.533       .  S
C1632      C1693   1.472       .  S
C1633      C1637   1.533       .  S
C1633      C1635   1.536       .  S
C1633      H1639   1.110       .  S
C1634      H1640   1.080       .  S
C1634      C1635   1.374       .  D
C1635      C1717   1.495       .  S
C1636      H1641   1.086       .  S
C1636      C1637   1.366       .  D
C1637      C1678   1.488       .  S
C1642      C1643   1.543       .  S
C1642      C1648   1.541       .  S
C1642      C1646   1.551       .  S
C1642      C1894   1.543       .  S
C1643      H1650   1.086       .  S
C1643      C1644   1.365       .  D
C1644      C1645   1.537       .  S
C1644      C1681   1.483       .  S
C1645      C1649   1.534       .  S
C1645      C1647   1.536       .  S
C1645      H1651   1.111       .  S
C1646      H1652   1.079       .  S
C1646      C1647   1.365       .  D
C1647      C1738   1.487       .  S
C1648      H1653   1.086       .  S
C1648      C1649   1.364       .  D
C1649      C1669   1.480       .  S
C1654      C1655   1.547       .  S
C1654      C1660   1.547       .  S
C1654      C1658   1.535       .  S
C1654      C1861   1.535       .  S
C1655      H1662   1.085       .  S
C1655      C1656   1.359       .  D
C1656      C1657   1.535       .  S
C1656      C1666   1.479       .  S
C1657      C1661   1.542       .  S
C1657      C1659   1.535       .  S
C1657      H1663   1.110       .  S
C1658      H1664   1.086       .  S
C1658      C1659   1.364       .  D
C1659      C1765   1.486       .  S
C1660      H1665   1.083       .  S
C1660      C1661   1.371       .  D
C1661      C1705   1.495       .  S
C1666      C1667   1.402       .  A
C1666      C1671   1.413       .  A
C1667      C1668   1.402       .  A
C1667      H1676   1.084       .  S
C1668      C1669   1.414       .  A
C1668      S1672   1.805       .  S
C1669      C1670   1.402       .  A
C1670      C1671   1.400       .  A
C1670      H1677   1.082       .  S
C1671      S1673   1.805       .  S
S1672      H1675   1.401       .  S
S1673      H1674   1.402       .  S
C1678      C1679   1.403       .  A
C1678      C1683   1.413       .  A
C1679      C1680   1.403       .  A
C1679      H1688   1.084       .  S
C1680      C1681   1.416       .  A
C1680      S1684   1.803       .  S
C1681      C1682   1.399       .  A
C1682      C1683   1.401       .  A
C1682      H1689   1.083       .  S
C1683      S1685   1.801       .  S
S1684      H1687   1.401       .  S
S1685      H1686   1.406       .  S
C1690      C1691   1.400       .  A
C1690      C1695   1.417       .  A
C1691      C1692   1.397       .  A
C1691      H1700   1.082       .  S
C1692      C1693   1.412       .  A
C1692      S1696   1.804       .  S
C1693      C1694   1.399       .  A
C1694      C1695   1.398       .  A
C1694      H1701   1.084       .  S
C1695      S1697   1.808       .  S
S1696      H1699   1.404       .  S
S1697      H1698   1.398       .  S
C1702      C1703   1.406       .  A
C1702      C1707   1.418       .  A
C1703      C1704   1.401       .  A
C1703      H1712   1.084       .  S
C1704      C1705   1.417       .  A
C1704      S1708   1.799       .  S
C1705      C1706   1.401       .  A
C1706      C1707   1.397       .  A
C1706      H1713   1.079       .  S
C1707      S1709   1.805       .  S
S1708      H1711   1.399       .  S
S1709      H1710   1.407       .  S
C1714      C1715   1.407       .  A
C1714      C1719   1.409       .  A
C1715      C1716   1.404       .  A
C1715      H1724   1.084       .  S
C1716      C1717   1.417       .  A
C1716      S1720   1.804       .  S
C1717      C1718   1.405       .  A
C1718      C1719   1.394       .  A
C1718      H1725   1.079       .  S
C1719      S1721   1.797       .  S
S1720      H1723   1.406       .  S
S1721      H1722   1.406       .  S
C1726      C1727   1.401       .  A
C1726      C1731   1.412       .  A
C1727      C1728   1.399       .  A
C1727      H1736   1.084       .  S
C1728      C1729   1.412       .  A
C1728      S1732   1.798       .  S
C1729      C1730   1.402       .  A
C1730      C1731   1.397       .  A
C1730      H1737   1.084       .  S
C1731      S1733   1.804       .  S
S1732      H1735   1.406       .  S
S1733      H1734   1.406       .  S
C1738      C1739   1.398       .  A
C1738      C1743   1.414       .  A
C1739      C1740   1.400       .  A
C1739      H1748   1.080       .  S
C1740      C1741   1.412       .  A
C1740      S1744   1.801       .  S
C1741      C1742   1.404       .  A
C1742      C1743   1.407       .  A
C1742      H1749   1.083       .  S
C1743      S1745   1.807       .  S
S1744      H1747   1.406       .  S
S1745      H1746   1.407       .  S
C1750      C1751   1.405       .  A
C1750      C1755   1.411       .  A
C1751      C1752   1.400       .  A
C1751      H1760   1.084       .  S
C1752      C1753   1.415       .  A
C1752      S1756   1.803       .  S
C1753      C1754   1.403       .  A
C1754      C1755   1.399       .  A
C1754      H1761   1.084       .  S
C1755      S1757   1.797       .  S
S1756      H1759   1.405       .  S
S1757      H1758   1.406       .  S
C1762      C1763   1.404       .  A
C1762      C1767   1.410       .  A
C1763      C1764   1.398       .  A
C1763      H1772   1.084       .  S
C1764      C1765   1.416       .  A
C1764      S1768   1.800       .  S
C1765      C1766   1.403       .  A
C1766      C1767   1.397       .  A
C1766      H1773   1.084       .  S
C1767      S1769   1.794       .  S
S1768      H1771   1.400       .  S
S1769      H1770   1.406       .  S
C1774      C1775   1.403       .  A
C1774      C1779   1.417       .  A
C1775      C1776   1.400       .  A
C1775      H1784   1.084       .  S
C1776      C1777   1.413       .  A
C1776      S1780   1.795       .  S
C1777      C1778   1.403       .  A
C1778      C1779   1.398       .  A
C1778      H1785   1.084       .  S
C1779      S1781   1.805       .  S
S1780      H1783   1.405       .  S
S1781      H1782   1.405       .  S
C1786      C1787   1.405       .  A
C1786      C1791   1.412       .  A
C1787      C1788   1.405       .  A
C1787      H1796   1.084       .  S
C1788      C1789   1.415       .  A
C1788      S1792   1.800       .  S
C1789      C1790   1.401       .  A
C1790      C1791   1.400       .  A
C1790      H1797   1.079       .  S
C1791      S1793   1.801       .  S
S1792      H1795   1.407       .  S
S1793      H1794   1.407       .  S
C1798      C1799   1.403       .  A
C1798      C1803   1.414       .  A
C1799      C1800   1.404       .  A
C1799      H1808   1.083       .  S
C1800      C1801   1.411       .  A
C1800      S1804   1.805       .  S
C1801      C1802   1.404       .  A
C1802      C1803   1.400       .  A
C1802      H1809   1.084       .  S
C1803      S1805   1.803       .  S
S1804      H1807   1.407       .  S
S1805      H1806   1.407       .  S
C1810      C1811   1.405       .  A
C1810      C1815   1.414       .  A
C1811      C1812   1.407       .  A
C1811      H1820   1.082       .  S
C1812      C1813   1.421       .  A
C1812      S1816   1.810       .  S
C1813      C1814   1.411       .  A
C1814      C1815   1.397       .  A
C1814      H1821   1.079       .  S
C1815      S1817   1.801       .  S
S1816      H1819   1.407       .  S
S1817      H1818   1.408       .  S
C1822      C1823   1.406       .  A
C1822      C1827   1.415       .  A
C1823      C1824   1.409       .  A
C1823      H1832   1.082       .  S
C1824      C1825   1.421       .  A
C1824      S1828   1.807       .  S
C1825      C1826   1.411       .  A
C1826      C1827   1.398       .  A
C1826      H1833   1.081       .  S
C1827      S1829   1.803       .  S
S1828      H1831   1.407       .  S
S1829      H1830   1.408       .  S
C1834      C1835   1.415       .  A
C1834      C1839   1.428       .  A
C1835      C1836   1.403       .  A
C1835      H1844   1.076       .  S
C1836      C1837   1.406       .  A
C1836      S1840   1.804       .  S
C1837      C1838   1.397       .  A
C1838      C1839   1.404       .  A
C1838      H1845   1.083       .  S
C1839      S1841   1.813       .  S
S1840      H1843   1.406       .  S
S1841      H1842   1.406       .  S
C1846      C1847   1.410       .  A
C1846      C1851   1.424       .  A
C1847      C1848   1.400       .  A
C1847      H1856   1.077       .  S
C1848      C1849   1.417       .  A
C1848      S1852   1.802       .  S
C1849      C1850   1.405       .  A
C1850      C1851   1.408       .  A
C1850      H1857   1.082       .  S
C1851      S1853   1.812       .  S
S1852      H1855   1.408       .  S
S1853      H1854   1.406       .  S
C1858      C1859   1.402       .  A
C1858      C1863   1.416       .  A
C1859      C1860   1.399       .  A
C1859      H1868   1.084       .  S
C1860      C1861   1.423       .  A
C1860      S1864   1.801       .  S
C1861      C1862   1.410       .  A
C1862      C1863   1.395       .  A
C1862      H1869   1.081       .  S
C1863      S1865   1.804       .  S
S1864      H1867   1.401       .  S
S1865      H1866   1.408       .  S
C1870      C1871   1.404       .  A
C1870      C1875   1.408       .  A
C1871      C1872   1.409       .  A
C1871      H1880   1.082       .  S
C1872      C1873   1.423       .  A
C1872      S1876   1.809       .  S
C1873      C1874   1.415       .  A
C1874      C1875   1.396       .  A
C1874      H1881   1.068       .  S
C1875      S1877   1.804       .  S
S1876      H1879   1.406       .  S
S1877      H1878   1.408       .  S
C1882      C1883   1.416       .  A
C1882      C1887   1.425       .  A
C1883      C1884   1.399       .  A
C1883      H1892   1.075       .  S
C1884      C1885   1.404       .  A
C1884      S1888   1.806       .  S
C1885      C1886   1.395       .  A
C1886      C1887   1.401       .  A
C1886      H1893   1.083       .  S
C1887      S1889   1.813       .  S
S1888      H1891   1.406       .  S
S1889      H1890   1.406       .  S
C1894      C1895   1.417       .  A
C1894      C1899   1.425       .  A
C1895      C1896   1.401       .  A
C1895      H1904   1.074       .  S
C1896      C1897   1.406       .  A
C1896      S1900   1.809       .  S
C1897      C1898   1.395       .  A
C1898      C1899   1.401       .  A
C1898      H1905   1.083       .  S
C1899      S1901   1.810       .  S
S1900      H1903   1.403       .  S
S1901      H1902   1.406       .  S
N1906      N1907   1.321       .  A
N1906      N1912   1.316       .  A
N1906     Mn2697   2.206   1_655  S
N1907      C1914   1.352       .  A
N1908      N1910   1.315       .  A
N1908      N1909   1.318       .  A
N1908     Mn1924   2.205       .  S
N1909      C1915   1.353       .  A
N1910      N1911   1.323       .  A
N1911      C1915   1.357       .  A
N1912      N1913   1.321       .  A
N1913      C1914   1.352       .  A
C1914      C2278   1.472       .  S
C1915      C2203   1.492       .  S
N1916      N1922   1.316       .  A
N1916      N1917   1.321       .  A
N1916     Mn1946   2.202       .  S
N1917      C1925   1.352       .  A
N1918      N1919   1.322       .  A
N1918      N1920   1.315       .  A
N1919      C1926   1.357       .  A
N1920      N1921   1.318       .  A
N1921      C1926   1.353       .  A
N1922      N1923   1.320       .  A
N1923      C1925   1.351       .  A
Mn1924    Cl2710   2.548       .  S
C1925      C2266   1.468       .  S
C1926      C2239   1.489       .  S
N1927      N1928   1.322       .  A
N1927      N1933   1.315       .  A
N1928      C1936   1.355       .  A
N1929      N1931   1.317       .  A
N1929      N1930   1.321       .  A
N1930      C1937   1.351       .  A
N1931      N1932   1.320       .  A
N1931     Mn1935   2.208   1_655  S
N1932      C1937   1.352       .  A
N1933      N1934   1.318       .  A
N1934      C1936   1.352       .  A
Mn1935     N2668   2.207   1_445  S
C1936      C2230   1.483       .  S
C1937      C2218   1.468       .  S
N1938      N1939   1.320       .  A
N1938      N1944   1.315       .  A
N1939      C1949   1.353       .  A
N1940      N1941   1.322       .  A
N1940      N1942   1.316       .  A
N1941      C1950   1.355       .  A
N1942      N1943   1.319       .  A
N1942     Mn2708   2.205   1_545  S
N1943      C1950   1.353       .  A
N1944      N1945   1.322       .  A
N1944     Mn1947   2.205   1_655  S
N1945      C1949   1.355       .  A
Mn1946     N2704   2.198       .  S
Mn1946    Cl2329   2.541       .  S
Cl1948    Mn2686   2.549       .  S
Cl1948    Mn2327   2.542       .  S
C1949      C2251   1.488       .  S
C1950      C2191   1.485       .  S
C1951      C1952   1.551       .  S
C1951      C1957   1.539       .  S
C1951      C1955   1.544       .  S
C1951      C2194   1.546       .  S
C1952      H1959   1.078       .  S
C1952      C1953   1.362       .  D
C1953      C1954   1.535       .  S
C1953      C2155   1.485       .  S
C1954      C1958   1.538       .  S
C1954      C1956   1.539       .  S
C1954      H1960   1.111       .  S
C1955      H1961   1.086       .  S
C1955      C1956   1.369       .  D
C1956      C2167   1.492       .  S
C1957      H1962   1.086       .  S
C1957      C1958   1.365       .  D
C1958      C2179   1.486       .  S
C1963      C1964   1.546       .  S
C1963      C1969   1.535       .  S
C1963      C1967   1.548       .  S
C1963      C2263   1.540       .  S
C1964      H1971   1.086       .  S
C1964      C1965   1.369       .  D
C1965      C1966   1.539       .  S
C1965      C2182   1.490       .  S
C1966      C1970   1.539       .  S
C1966      C1968   1.539       .  S
C1966      H1972   1.110       .  S
C1967      H1973   1.082       .  S
C1967      C1968   1.364       .  D
C1968      C2143   1.484       .  S
C1969      H1974   1.087       .  S
C1969      C1970   1.361       .  D
C1970      C2131   1.485       .  S
C1975      C1976   1.547       .  S
C1975      C1981   1.547       .  S
C1975      C1979   1.541       .  S
C1975      C2206   1.541       .  S
C1976      H1983   1.084       .  S
C1976      C1977   1.367       .  D
C1977      C1978   1.534       .  S
C1977      C2134   1.482       .  S
C1978      C1982   1.529       .  S
C1978      C1980   1.533       .  S
C1978      H1984   1.111       .  S
C1979      H1985   1.086       .  S
C1979      C1980   1.369       .  D
C1980      C2122   1.487       .  S
C1981      H1986   1.084       .  S
C1981      C1982   1.361       .  D
C1982      C2107   1.479       .  S
C1987      C1988   1.552       .  S
C1987      C1993   1.541       .  S
C1987      C1991   1.540       .  S
C1987      C2227   1.543       .  S
C1988      H1995   1.080       .  S
C1988      C1989   1.364       .  D
C1989      C1990   1.535       .  S
C1989      C2110   1.485       .  S
C1990      C1994   1.537       .  S
C1990      C1992   1.541       .  S
C1990      H1996   1.109       .  S
C1991      H1997   1.086       .  S
C1991      C1992   1.365       .  D
C1992      C2095   1.488       .  S
C1993      H1998   1.086       .  S
C1993      C1994   1.365       .  D
C1994      C2158   1.489       .  S
C1999      C2000   1.545       .  S
C1999      C2005   1.551       .  S
C1999      C2003   1.545       .  S
C1999      C2254   1.549       .  S
C2000      H2007   1.086       .  S
C2000      C2001   1.372       .  D
C2001      C2002   1.536       .  S
C2001      C2083   1.495       .  S
C2002      C2006   1.534       .  S
C2002      C2004   1.535       .  S
C2002      H2008   1.108       .  S
C2003      H2009   1.086       .  S
C2003      C2004   1.368       .  D
C2004      C2170   1.490       .  S
C2005      H2010   1.079       .  S
C2005      C2006   1.357       .  D
C2006      C2071   1.476       .  S
C2011      C2012   1.537       .  S
C2011      C2017   1.542       .  S
C2011      C2015   1.553       .  S
C2011      C2215   1.538       .  S
C2012      H2019   1.087       .  S
C2012      C2013   1.356       .  D
C2013      C2014   1.533       .  S
C2013      C2074   1.473       .  S
C2014      C2018   1.536       .  S
C2014      C2016   1.539       .  S
C2014      H2020   1.110       .  S
C2015      H2021   1.080       .  S
C2015      C2016   1.371       .  D
C2016      C2098   1.491       .  S
C2017      H2022   1.086       .  S
C2017      C2018   1.366       .  D
C2018      C2059   1.490       .  S
C2023      C2024   1.544       .  S
C2023      C2029   1.540       .  S
C2023      C2027   1.553       .  S
C2023      C2275   1.544       .  S
C2024      H2031   1.086       .  S
C2024      C2025   1.367       .  D
C2025      C2026   1.536       .  S
C2025      C2062   1.487       .  S
C2026      C2030   1.532       .  S
C2026      C2028   1.535       .  S
C2026      H2032   1.111       .  S
C2027      H2033   1.079       .  S
C2027      C2028   1.367       .  D
C2028      C2119   1.486       .  S
C2029      H2034   1.086       .  S
C2029      C2030   1.362       .  D
C2030      C2050   1.476       .  S
C2035      C2036   1.547       .  S
C2035      C2041   1.549       .  S
C2035      C2039   1.536       .  S
C2035      C2242   1.540       .  S
C2036      H2043   1.086       .  S
C2036      C2037   1.360       .  D
C2037      C2038   1.533       .  S
C2037      C2047   1.477       .  S
C2038      C2042   1.537       .  S
C2038      C2040   1.532       .  S
C2038      H2044   1.110       .  S
C2039      H2045   1.086       .  S
C2039      C2040   1.364       .  D
C2040      C2146   1.481       .  S
C2041      H2046   1.083       .  S
C2041      C2042   1.372       .  D
C2042      C2086   1.493       .  S
C2047      C2048   1.402       .  A
C2047      C2052   1.412       .  A
C2048      C2049   1.402       .  A
C2048      H2057   1.084       .  S
C2049      C2050   1.415       .  A
C2049      S2053   1.808       .  S
C2050      C2051   1.401       .  A
C2051      C2052   1.398       .  A
C2051      H2058   1.083       .  S
C2052      S2054   1.804       .  S
S2053      H2056   1.400       .  S
S2054      H2055   1.402       .  S
C2059      C2060   1.405       .  A
C2059      C2064   1.413       .  A
C2060      C2061   1.403       .  A
C2060      H2069   1.084       .  S
C2061      C2062   1.415       .  A
C2061      S2065   1.801       .  S
C2062      C2063   1.400       .  A
C2063      C2064   1.400       .  A
C2063      H2070   1.083       .  S
C2064      S2066   1.800       .  S
S2065      H2068   1.404       .  S
S2066      H2067   1.407       .  S
C2071      C2072   1.401       .  A
C2071      C2076   1.417       .  A
C2072      C2073   1.398       .  A
C2072      H2081   1.082       .  S
C2073      C2074   1.411       .  A
C2073      S2077   1.804       .  S
C2074      C2075   1.400       .  A
C2075      C2076   1.398       .  A
C2075      H2082   1.084       .  S
C2076      S2078   1.809       .  S
S2077      H2080   1.404       .  S
S2078      H2079   1.398       .  S
C2083      C2084   1.406       .  A
C2083      C2088   1.417       .  A
C2084      C2085   1.404       .  A
C2084      H2093   1.083       .  S
C2085      C2086   1.413       .  A
C2085      S2089   1.805       .  S
C2086      C2087   1.401       .  A
C2087      C2088   1.399       .  A
C2087      H2094   1.079       .  S
C2088      S2090   1.805       .  S
S2089      H2092   1.407       .  S
S2090      H2091   1.407       .  S
C2095      C2096   1.405       .  A
C2095      C2100   1.410       .  A
C2096      C2097   1.403       .  A
C2096      H2105   1.084       .  S
C2097      C2098   1.417       .  A
C2097      S2101   1.803       .  S
C2098      C2099   1.401       .  A
C2099      C2100   1.393       .  A
C2099      H2106   1.079       .  S
C2100      S2102   1.796       .  S
S2101      H2104   1.407       .  S
S2102      H2103   1.406       .  S
C2107      C2108   1.401       .  A
C2107      C2112   1.413       .  A
C2108      C2109   1.398       .  A
C2108      H2117   1.084       .  S
C2109      C2110   1.411       .  A
C2109      S2113   1.796       .  S
C2110      C2111   1.404       .  A
C2111      C2112   1.398       .  A
C2111      H2118   1.084       .  S
C2112      S2114   1.804       .  S
S2113      H2116   1.406       .  S
S2114      H2115   1.407       .  S
C2119      C2120   1.398       .  A
C2119      C2124   1.413       .  A
C2120      C2121   1.398       .  A
C2120      H2129   1.080       .  S
C2121      C2122   1.412       .  A
C2121      S2125   1.802       .  S
C2122      C2123   1.405       .  A
C2123      C2124   1.407       .  A
C2123      H2130   1.083       .  S
C2124      S2126   1.806       .  S
S2125      H2128   1.406       .  S
S2126      H2127   1.407       .  S
C2131      C2132   1.404       .  A
C2131      C2136   1.411       .  A
C2132      C2133   1.400       .  A
C2132      H2141   1.084       .  S
C2133      C2134   1.415       .  A
C2133      S2137   1.803       .  S
C2134      C2135   1.402       .  A
C2135      C2136   1.397       .  A
C2135      H2142   1.084       .  S
C2136      S2138   1.796       .  S
S2137      H2140   1.405       .  S
S2138      H2139   1.406       .  S
C2143      C2144   1.405       .  A
C2143      C2148   1.409       .  A
C2144      C2145   1.400       .  A
C2144      H2153   1.084       .  S
C2145      C2146   1.414       .  A
C2145      S2149   1.803       .  S
C2146      C2147   1.402       .  A
C2147      C2148   1.396       .  A
C2147      H2154   1.083       .  S
C2148      S2150   1.795       .  S
S2149      H2152   1.406       .  S
S2150      H2151   1.406       .  S
C2155      C2156   1.401       .  A
C2155      C2160   1.417       .  A
C2156      C2157   1.398       .  A
C2156      H2165   1.084       .  S
C2157      C2158   1.414       .  A
C2157      S2161   1.796       .  S
C2158      C2159   1.404       .  A
C2159      C2160   1.399       .  A
C2159      H2166   1.084       .  S
C2160      S2162   1.806       .  S
S2161      H2164   1.405       .  S
S2162      H2163   1.405       .  S
C2167      C2168   1.406       .  A
C2167      C2172   1.413       .  A
C2168      C2169   1.406       .  A
C2168      H2177   1.084       .  S
C2169      C2170   1.415       .  A
C2169      S2173   1.801       .  S
C2170      C2171   1.400       .  A
C2171      C2172   1.399       .  A
C2171      H2178   1.079       .  S
C2172      S2174   1.803       .  S
S2173      H2176   1.407       .  S
S2174      H2175   1.407       .  S
C2179      C2180   1.401       .  A
C2179      C2184   1.414       .  A
C2180      C2181   1.405       .  A
C2180      H2189   1.083       .  S
C2181      C2182   1.414       .  A
C2181      S2185   1.803       .  S
C2182      C2183   1.404       .  A
C2183      C2184   1.400       .  A
C2183      H2190   1.084       .  S
C2184      S2186   1.803       .  S
S2185      H2188   1.407       .  S
S2186      H2187   1.407       .  S
C2191      C2192   1.403       .  A
C2191      C2196   1.410       .  A
C2192      C2193   1.409       .  A
C2192      H2201   1.082       .  S
C2193      C2194   1.424       .  A
C2193      S2197   1.810       .  S
C2194      C2195   1.413       .  A
C2195      C2196   1.395       .  A
C2195      H2202   1.072       .  S
C2196      S2198   1.804       .  S
S2197      H2200   1.407       .  S
S2198      H2199   1.408       .  S
C2203      C2204   1.406       .  A
C2203      C2208   1.415       .  A
C2204      C2205   1.408       .  A
C2204      H2213   1.082       .  S
C2205      C2206   1.421       .  A
C2205      S2209   1.807       .  S
C2206      C2207   1.410       .  A
C2207      C2208   1.397       .  A
C2207      H2214   1.081       .  S
C2208      S2210   1.803       .  S
S2209      H2212   1.407       .  S
S2210      H2211   1.408       .  S
C2215      C2216   1.414       .  A
C2215      C2220   1.426       .  A
C2216      C2217   1.401       .  A
C2216      H2225   1.076       .  S
C2217      C2218   1.406       .  A
C2217      S2221   1.805       .  S
C2218      C2219   1.396       .  A
C2219      C2220   1.401       .  A
C2219      H2226   1.083       .  S
C2220      S2222   1.814       .  S
S2221      H2224   1.406       .  S
S2222      H2223   1.406       .  S
C2227      C2228   1.411       .  A
C2227      C2232   1.426       .  A
C2228      C2229   1.396       .  A
C2228      H2237   1.074       .  S
C2229      C2230   1.411       .  A
C2229      S2233   1.804       .  S
C2230      C2231   1.401       .  A
C2231      C2232   1.407       .  A
C2231      H2238   1.083       .  S
C2232      S2234   1.812       .  S
S2233      H2236   1.408       .  S
S2234      H2235   1.407       .  S
C2239      C2240   1.404       .  A
C2239      C2244   1.414       .  A
C2240      C2241   1.402       .  A
C2240      H2249   1.084       .  S
C2241      C2242   1.423       .  A
C2241      S2245   1.801       .  S
C2242      C2243   1.411       .  A
C2243      C2244   1.398       .  A
C2243      H2250   1.083       .  S
C2244      S2246   1.803       .  S
S2245      H2248   1.405       .  S
S2246      H2247   1.408       .  S
C2251      C2252   1.403       .  A
C2251      C2256   1.411       .  A
C2252      C2253   1.409       .  A
C2252      H2261   1.082       .  S
C2253      C2254   1.425       .  A
C2253      S2257   1.810       .  S
C2254      C2255   1.414       .  A
C2255      C2256   1.397       .  A
C2255      H2262   1.073       .  S
C2256      S2258   1.804       .  S
S2257      H2260   1.406       .  S
S2258      H2259   1.408       .  S
C2263      C2264   1.416       .  A
C2263      C2268   1.425       .  A
C2264      C2265   1.399       .  A
C2264      H2273   1.076       .  S
C2265      C2266   1.404       .  A
C2265      S2269   1.805       .  S
C2266      C2267   1.397       .  A
C2267      C2268   1.403       .  A
C2267      H2274   1.083       .  S
C2268      S2270   1.812       .  S
S2269      H2272   1.406       .  S
S2270      H2271   1.406       .  S
C2275      C2276   1.416       .  A
C2275      C2280   1.426       .  A
C2276      C2277   1.401       .  A
C2276      H2285   1.074       .  S
C2277      C2278   1.404       .  A
C2277      S2281   1.804       .  S
C2278      C2279   1.397       .  A
C2279      C2280   1.404       .  A
C2279      H2286   1.083       .  S
C2280      S2282   1.811       .  S
S2281      H2284   1.406       .  S
S2282      H2283   1.406       .  S
N2287      N2288   1.322       .  A
N2287      N2293   1.317       .  A
N2288      C2295   1.353       .  A
N2289      N2291   1.316       .  A
N2289      N2290   1.319       .  A
N2289     Mn2305   2.211       .  S
N2290      C2296   1.354       .  A
N2291      N2292   1.322       .  A
N2292      C2296   1.356       .  A
N2293      N2294   1.321       .  A
N2294      C2295   1.352       .  A
C2295      C2659   1.473       .  S
C2296      C2584   1.492       .  S
N2297      N2303   1.316       .  A
N2297      N2298   1.321       .  A
N2297     Mn2327   2.203       .  S
N2298      C2306   1.353       .  A
N2299      N2300   1.322       .  A
N2299      N2301   1.316       .  A
N2300      C2307   1.357       .  A
N2301      N2302   1.318       .  A
N2302      C2307   1.353       .  A
N2303      N2304   1.321       .  A
N2303     Mn2686   2.206       .  S
N2304      C2306   1.352       .  A
Mn2305     N2684   2.202   1_554  S
C2306      C2647   1.474       .  S
C2307      C2620   1.492       .  S
N2308      N2309   1.321       .  A
N2308      N2314   1.315       .  A
N2309      C2317   1.354       .  A
N2310      N2312   1.317       .  A
N2310      N2311   1.322       .  A
N2310     Mn2709   2.215   1_654  S
N2311      C2318   1.353       .  A
N2312      N2313   1.320       .  A
N2312     Mn2316   2.202   1_655  S
N2313      C2318   1.351       .  A
N2314      N2315   1.318       .  A
N2315      C2317   1.352       .  A
C2317      C2611   1.481       .  S
C2318      C2599   1.471       .  S
N2319      N2320   1.319       .  A
N2319      N2325   1.314       .  A
N2320      C2330   1.353       .  A
N2321      N2322   1.323       .  A
N2321      N2323   1.314       .  A
N2322      C2331   1.357       .  A
N2323      N2324   1.317       .  A
N2324      C2331   1.351       .  A
N2325      N2326   1.323       .  A
N2325     Mn2328   2.207   1_655  S
N2326      C2330   1.356       .  A
Mn2328     N2691   2.208   1_455  S
C2330      C2632   1.489       .  S
C2331      C2572   1.486       .  S
C2332      C2333   1.550       .  S
C2332      C2338   1.537       .  S
C2332      C2336   1.537       .  S
C2332      C2575   1.539       .  S
C2333      H2340   1.082       .  S
C2333      C2334   1.364       .  D
C2334      C2335   1.537       .  S
C2334      C2536   1.489       .  S
C2335      C2339   1.539       .  S
C2335      C2337   1.538       .  S
C2335      H2341   1.111       .  S
C2336      H2342   1.086       .  S
C2336      C2337   1.364       .  D
C2337      C2548   1.483       .  S
C2338      H2343   1.086       .  S
C2338      C2339   1.366       .  D
C2339      C2560   1.485       .  S
C2344      C2345   1.544       .  S
C2344      C2350   1.534       .  S
C2344      C2348   1.547       .  S
C2344      C2644   1.541       .  S
C2345      H2352   1.084       .  S
C2345      C2346   1.368       .  D
C2346      C2347   1.537       .  S
C2346      C2563   1.487       .  S
C2347      C2351   1.540       .  S
C2347      C2349   1.541       .  S
C2347      H2353   1.110       .  S
C2348      H2354   1.084       .  S
C2348      C2349   1.366       .  D
C2349      C2524   1.486       .  S
C2350      H2355   1.087       .  S
C2350      C2351   1.363       .  D
C2351      C2512   1.490       .  S
C2356      C2357   1.549       .  S
C2356      C2362   1.544       .  S
C2356      C2360   1.541       .  S
C2356      C2587   1.543       .  S
C2357      H2364   1.084       .  S
C2357      C2358   1.370       .  D
C2358      C2359   1.536       .  S
C2358      C2515   1.488       .  S
C2359      C2363   1.528       .  S
C2359      C2361   1.534       .  S
C2359      H2365   1.111       .  S
C2360      H2366   1.086       .  S
C2360      C2361   1.369       .  D
C2361      C2503   1.488       .  S
C2362      H2367   1.084       .  S
C2362      C2363   1.359       .  D
C2363      C2488   1.475       .  S
C2368      C2369   1.550       .  S
C2368      C2374   1.541       .  S
C2368      C2372   1.540       .  S
C2368      C2608   1.542       .  S
C2369      H2376   1.079       .  S
C2369      C2370   1.361       .  D
C2370      C2371   1.531       .  S
C2370      C2491   1.479       .  S
C2371      C2375   1.539       .  S
C2371      C2373   1.540       .  S
C2371      H2377   1.108       .  S
C2372      H2378   1.086       .  S
C2372      C2373   1.366       .  D
C2373      C2476   1.487       .  S
C2374      H2379   1.086       .  S
C2374      C2375   1.367       .  D
C2375      C2539   1.493       .  S
C2380      C2381   1.545       .  S
C2380      C2386   1.553       .  S
C2380      C2384   1.542       .  S
C2380      C2635   1.547       .  S
C2381      H2388   1.086       .  S
C2381      C2382   1.372       .  D
C2382      C2383   1.538       .  S
C2382      C2464   1.496       .  S
C2383      C2387   1.534       .  S
C2383      C2385   1.532       .  S
C2383      H2389   1.108       .  S
C2384      H2390   1.086       .  S
C2384      C2385   1.366       .  D
C2385      C2551   1.483       .  S
C2386      H2391   1.080       .  S
C2386      C2387   1.360       .  D
C2387      C2452   1.480       .  S
C2392      C2393   1.536       .  S
C2392      C2398   1.543       .  S
C2392      C2396   1.555       .  S
C2392      C2596   1.541       .  S
C2393      H2400   1.087       .  S
C2393      C2394   1.358       .  D
C2394      C2395   1.535       .  S
C2394      C2455   1.476       .  S
C2395      C2399   1.534       .  S
C2395      C2397   1.538       .  S
C2395      H2401   1.111       .  S
C2396      H2402   1.080       .  S
C2396      C2397   1.373       .  D
C2397      C2479   1.491       .  S
C2398      H2403   1.086       .  S
C2398      C2399   1.364       .  D
C2399      C2440   1.486       .  S
C2404      C2405   1.542       .  S
C2404      C2410   1.544       .  S
C2404      C2408   1.553       .  S
C2404      C2656   1.547       .  S
C2405      H2412   1.086       .  S
C2405      C2406   1.364       .  D
C2406      C2407   1.535       .  S
C2406      C2443   1.482       .  S
C2407      C2411   1.535       .  S
C2407      C2409   1.535       .  S
C2407      H2413   1.111       .  S
C2408      H2414   1.079       .  S
C2408      C2409   1.367       .  D
C2409      C2500   1.488       .  S
C2410      H2415   1.086       .  S
C2410      C2411   1.366       .  D
C2411      C2431   1.482       .  S
C2416      C2417   1.548       .  S
C2416      C2422   1.550       .  S
C2416      C2420   1.537       .  S
C2416      C2623   1.541       .  S
C2417      H2424   1.086       .  S
C2417      C2418   1.360       .  D
C2418      C2419   1.533       .  S
C2418      C2428   1.480       .  S
C2419      C2423   1.537       .  S
C2419      C2421   1.532       .  S
C2419      H2425   1.110       .  S
C2420      H2426   1.086       .  S
C2420      C2421   1.364       .  D
C2421      C2527   1.483       .  S
C2422      H2427   1.083       .  S
C2422      C2423   1.373       .  D
C2423      C2467   1.491       .  S
C2428      C2429   1.401       .  A
C2428      C2433   1.415       .  A
C2429      C2430   1.402       .  A
C2429      H2438   1.084       .  S
C2430      C2431   1.415       .  A
C2430      S2434   1.806       .  S
C2431      C2432   1.402       .  A
C2432      C2433   1.401       .  A
C2432      H2439   1.082       .  S
C2433      S2435   1.807       .  S
S2434      H2437   1.400       .  S
S2435      H2436   1.400       .  S
C2440      C2441   1.403       .  A
C2440      C2445   1.411       .  A
C2441      C2442   1.402       .  A
C2441      H2450   1.084       .  S
C2442      C2443   1.415       .  A
C2442      S2446   1.803       .  S
C2443      C2444   1.401       .  A
C2444      C2445   1.402       .  A
C2444      H2451   1.083       .  S
C2445      S2447   1.803       .  S
S2446      H2449   1.401       .  S
S2447      H2448   1.406       .  S
C2452      C2453   1.401       .  A
C2452      C2457   1.416       .  A
C2453      C2454   1.399       .  A
C2453      H2462   1.081       .  S
C2454      C2455   1.414       .  A
C2454      S2458   1.806       .  S
C2455      C2456   1.400       .  A
C2456      C2457   1.400       .  A
C2456      H2463   1.084       .  S
C2457      S2459   1.808       .  S
S2458      H2461   1.402       .  S
S2459      H2460   1.398       .  S
C2464      C2465   1.409       .  A
C2464      C2469   1.418       .  A
C2465      C2466   1.402       .  A
C2465      H2474   1.084       .  S
C2466      C2467   1.413       .  A
C2466      S2470   1.801       .  S
C2467      C2468   1.401       .  A
C2468      C2469   1.398       .  A
C2468      H2475   1.079       .  S
C2469      S2471   1.805       .  S
S2470      H2473   1.406       .  S
S2471      H2472   1.407       .  S
C2476      C2477   1.406       .  A
C2476      C2481   1.410       .  A
C2477      C2478   1.403       .  A
C2477      H2486   1.084       .  S
C2478      C2479   1.417       .  A
C2478      S2482   1.804       .  S
C2479      C2480   1.402       .  A
C2480      C2481   1.393       .  A
C2480      H2487   1.080       .  S
C2481      S2483   1.799       .  S
S2482      H2485   1.405       .  S
S2483      H2484   1.406       .  S
C2488      C2489   1.401       .  A
C2488      C2493   1.412       .  A
C2489      C2490   1.398       .  A
C2489      H2498   1.084       .  S
C2490      C2491   1.411       .  A
C2490      S2494   1.797       .  S
C2491      C2492   1.402       .  A
C2492      C2493   1.395       .  A
C2492      H2499   1.084       .  S
C2493      S2495   1.804       .  S
S2494      H2497   1.406       .  S
S2495      H2496   1.406       .  S
C2500      C2501   1.399       .  A
C2500      C2505   1.414       .  A
C2501      C2502   1.400       .  A
C2501      H2510   1.080       .  S
C2502      C2503   1.412       .  A
C2502      S2506   1.803       .  S
C2503      C2504   1.404       .  A
C2504      C2505   1.406       .  A
C2504      H2511   1.083       .  S
C2505      S2507   1.806       .  S
S2506      H2509   1.406       .  S
S2507      H2508   1.407       .  S
C2512      C2513   1.404       .  A
C2512      C2517   1.413       .  A
C2513      C2514   1.399       .  A
C2513      H2522   1.084       .  S
C2514      C2515   1.415       .  A
C2514      S2518   1.800       .  S
C2515      C2516   1.404       .  A
C2516      C2517   1.399       .  A
C2516      H2523   1.084       .  S
C2517      S2519   1.796       .  S
S2518      H2521   1.406       .  S
S2519      H2520   1.405       .  S
C2524      C2525   1.405       .  A
C2524      C2529   1.409       .  A
C2525      C2526   1.406       .  A
C2525      H2534   1.082       .  S
C2526      C2527   1.413       .  A
C2526      S2530   1.807       .  S
C2527      C2528   1.401       .  A
C2528      C2529   1.395       .  A
C2528      H2535   1.083       .  S
C2529      S2531   1.795       .  S
S2530      H2533   1.406       .  S
S2531      H2532   1.406       .  S
C2536      C2537   1.402       .  A
C2536      C2541   1.418       .  A
C2537      C2538   1.399       .  A
C2537      H2546   1.084       .  S
C2538      C2539   1.415       .  A
C2538      S2542   1.797       .  S
C2539      C2540   1.404       .  A
C2540      C2541   1.400       .  A
C2540      H2547   1.084       .  S
C2541      S2543   1.805       .  S
S2542      H2545   1.405       .  S
S2543      H2544   1.405       .  S
C2548      C2549   1.404       .  A
C2548      C2553   1.410       .  A
C2549      C2550   1.402       .  A
C2549      H2558   1.084       .  S
C2550      C2551   1.413       .  A
C2550      S2554   1.801       .  S
C2551      C2552   1.400       .  A
C2552      C2553   1.399       .  A
C2552      H2559   1.078       .  S
C2553      S2555   1.804       .  S
S2554      H2557   1.406       .  S
S2555      H2556   1.407       .  S
C2560      C2561   1.404       .  A
C2560      C2565   1.413       .  A
C2561      C2562   1.408       .  A
C2561      H2570   1.083       .  S
C2562      C2563   1.413       .  A
C2562      S2566   1.805       .  S
C2563      C2564   1.402       .  A
C2564      C2565   1.396       .  A
C2564      H2571   1.084       .  S
C2565      S2567   1.804       .  S
S2566      H2569   1.407       .  S
S2567      H2568   1.407       .  S
C2572      C2573   1.404       .  A
C2572      C2577   1.414       .  A
C2573      C2574   1.407       .  A
C2573      H2582   1.083       .  S
C2574      C2575   1.422       .  A
C2574      S2578   1.810       .  S
C2575      C2576   1.409       .  A
C2576      C2577   1.394       .  A
C2576      H2583   1.078       .  S
C2577      S2579   1.803       .  S
S2578      H2581   1.407       .  S
S2579      H2580   1.408       .  S
C2584      C2585   1.406       .  A
C2584      C2589   1.414       .  A
C2585      C2586   1.408       .  A
C2585      H2594   1.082       .  S
C2586      C2587   1.420       .  A
C2586      S2590   1.806       .  S
C2587      C2588   1.412       .  A
C2588      C2589   1.397       .  A
C2588      H2595   1.081       .  S
C2589      S2591   1.803       .  S
S2590      H2593   1.406       .  S
S2591      H2592   1.408       .  S
C2596      C2597   1.415       .  A
C2596      C2601   1.427       .  A
C2597      C2598   1.403       .  A
C2597      H2606   1.076       .  S
C2598      C2599   1.407       .  A
C2598      S2602   1.805       .  S
C2599      C2600   1.395       .  A
C2600      C2601   1.402       .  A
C2600      H2607   1.083       .  S
C2601      S2603   1.814       .  S
S2602      H2605   1.406       .  S
S2603      H2604   1.406       .  S
C2608      C2609   1.412       .  A
C2608      C2613   1.425       .  A
C2609      C2610   1.395       .  A
C2609      H2618   1.072       .  S
C2610      C2611   1.410       .  A
C2610      S2614   1.804       .  S
C2611      C2612   1.402       .  A
C2612      C2613   1.406       .  A
C2612      H2619   1.082       .  S
C2613      S2615   1.812       .  S
S2614      H2617   1.408       .  S
S2615      H2616   1.407       .  S
C2620      C2621   1.405       .  A
C2620      C2625   1.415       .  A
C2621      C2622   1.404       .  A
C2621      H2630   1.083       .  S
C2622      C2623   1.423       .  A
C2622      S2626   1.801       .  S
C2623      C2624   1.411       .  A
C2624      C2625   1.397       .  A
C2624      H2631   1.082       .  S
C2625      S2627   1.803       .  S
S2626      H2629   1.405       .  S
S2627      H2628   1.408       .  S
C2632      C2633   1.403       .  A
C2632      C2637   1.413       .  A
C2633      C2634   1.409       .  A
C2633      H2642   1.083       .  S
C2634      C2635   1.425       .  A
C2634      S2638   1.809       .  S
C2635      C2636   1.412       .  A
C2636      C2637   1.398       .  A
C2636      H2643   1.074       .  S
C2637      S2639   1.804       .  S
S2638      H2641   1.407       .  S
S2639      H2640   1.408       .  S
C2644      C2645   1.416       .  A
C2644      C2649   1.428       .  A
C2645      C2646   1.401       .  A
C2645      H2654   1.080       .  S
C2646      C2647   1.407       .  A
C2646      S2650   1.805       .  S
C2647      C2648   1.398       .  A
C2648      C2649   1.400       .  A
C2648      H2655   1.084       .  S
C2649      S2651   1.806       .  S
S2650      H2653   1.406       .  S
S2651      H2652   1.402       .  S
C2656      C2657   1.416       .  A
C2656      C2661   1.425       .  A
C2657      C2658   1.402       .  A
C2657      H2666   1.074       .  S
C2658      C2659   1.407       .  A
C2658      S2662   1.810       .  S
C2659      C2660   1.398       .  A
C2660      C2661   1.405       .  A
C2660      H2667   1.083       .  S
C2661      S2663   1.811       .  S
S2662      H2665   1.402       .  S
S2663      H2664   1.406       .  S
N2668      N2669   1.322       .  A
N2668      N2674   1.316       .  A
N2669      C2676   1.352       .  A
N2670      N2672   1.315       .  A
N2670      N2671   1.319       .  A
N2670     Mn2686   2.208       .  S
N2671      C2677   1.353       .  A
N2672      N2673   1.323       .  A
N2673      C2677   1.357       .  A
N2674      N2675   1.321       .  A
N2675      C2676   1.352       .  A
C2676      C3040   1.473       .  S
C2677      C2965   1.496       .  S
N2678      N2684   1.316       .  A
N2678      N2679   1.321       .  A
N2678     Mn2708   2.203       .  S
N2679      C2687   1.352       .  A
N2680      N2681   1.322       .  A
N2680      N2682   1.315       .  A
N2681      C2688   1.357       .  A
N2682      N2683   1.316       .  A
N2683      C2688   1.350       .  A
N2684      N2685   1.321       .  A
N2685      C2687   1.351       .  A
C2687      C3028   1.470       .  S
C2688      C3001   1.486       .  S
N2689      N2690   1.321       .  A
N2689      N2695   1.316       .  A
N2690      C2698   1.354       .  A
N2691      N2693   1.318       .  A
N2691      N2692   1.321       .  A
N2692      C2699   1.352       .  A
N2693      N2694   1.319       .  A
N2693     Mn2697   2.201   1_655  S
N2694      C2699   1.350       .  A
N2695      N2696   1.318       .  A
N2696      C2698   1.351       .  A
C2698      C2992   1.481       .  S
C2699      C2980   1.466       .  S
N2700      N2701   1.319       .  A
N2700      N2706   1.314       .  A
N2701      C2711   1.353       .  A
N2702      N2703   1.322       .  A
N2702      N2704   1.315       .  A
N2703      C2712   1.356       .  A
N2704      N2705   1.319       .  A
N2705      C2712   1.352       .  A
N2706      N2707   1.322       .  A
N2706     Mn2709   2.198   1_655  S
N2707      C2711   1.354       .  A
C2711      C3013   1.489       .  S
C2712      C2953   1.487       .  S
C2713      C2714   1.551       .  S
C2713      C2719   1.540       .  S
C2713      C2717   1.538       .  S
C2713      C2956   1.541       .  S
C2714      H2721   1.081       .  S
C2714      C2715   1.364       .  D
C2715      C2716   1.536       .  S
C2715      C2917   1.490       .  S
C2716      C2720   1.539       .  S
C2716      C2718   1.536       .  S
C2716      H2722   1.111       .  S
C2717      H2723   1.086       .  S
C2717      C2718   1.364       .  D
C2718      C2929   1.483       .  S
C2719      H2724   1.085       .  S
C2719      C2720   1.368       .  D
C2720      C2941   1.488       .  S
C2725      C2726   1.541       .  S
C2725      C2731   1.538       .  S
C2725      C2729   1.548       .  S
C2725      C3025   1.543       .  S
C2726      H2733   1.086       .  S
C2726      C2727   1.367       .  D
C2727      C2728   1.540       .  S
C2727      C2944   1.489       .  S
C2728      C2732   1.542       .  S
C2728      C2730   1.541       .  S
C2728      H2734   1.109       .  S
C2729      H2735   1.080       .  S
C2729      C2730   1.366       .  D
C2730      C2905   1.487       .  S
C2731      H2736   1.086       .  S
C2731      C2732   1.363       .  D
C2732      C2893   1.491       .  S
C2737      C2738   1.550       .  S
C2737      C2743   1.546       .  S
C2737      C2741   1.542       .  S
C2737      C2968   1.546       .  S
C2738      H2745   1.085       .  S
C2738      C2739   1.371       .  D
C2739      C2740   1.536       .  S
C2739      C2896   1.489       .  S
C2740      C2744   1.529       .  S
C2740      C2742   1.535       .  S
C2740      H2746   1.111       .  S
C2741      H2747   1.086       .  S
C2741      C2742   1.369       .  D
C2742      C2884   1.488       .  S
C2743      H2748   1.084       .  S
C2743      C2744   1.359       .  D
C2744      C2869   1.478       .  S
C2749      C2750   1.550       .  S
C2749      C2755   1.540       .  S
C2749      C2753   1.538       .  S
C2749      C2989   1.540       .  S
C2750      H2757   1.080       .  S
C2750      C2751   1.363       .  D
C2751      C2752   1.535       .  S
C2751      C2872   1.483       .  S
C2752      C2756   1.539       .  S
C2752      C2754   1.540       .  S
C2752      H2758   1.109       .  S
C2753      H2759   1.086       .  S
C2753      C2754   1.364       .  D
C2754      C2857   1.485       .  S
C2755      H2760   1.086       .  S
C2755      C2756   1.366       .  D
C2756      C2920   1.492       .  S
C2761      C2762   1.545       .  S
C2761      C2767   1.550       .  S
C2761      C2765   1.541       .  S
C2761      C3016   1.544       .  S
C2762      H2769   1.086       .  S
C2762      C2763   1.373       .  D
C2763      C2764   1.536       .  S
C2763      C2845   1.492       .  S
C2764      C2768   1.533       .  S
C2764      C2766   1.533       .  S
C2764      H2770   1.108       .  S
C2765      H2771   1.086       .  S
C2765      C2766   1.366       .  D
C2766      C2932   1.483       .  S
C2767      H2772   1.081       .  S
C2767      C2768   1.357       .  D
C2768      C2833   1.476       .  S
C2773      C2774   1.534       .  S
C2773      C2779   1.544       .  S
C2773      C2777   1.553       .  S
C2773      C2977   1.538       .  S
C2774      H2781   1.087       .  S
C2774      C2775   1.357       .  D
C2775      C2776   1.537       .  S
C2775      C2836   1.473       .  S
C2776      C2780   1.534       .  S
C2776      C2778   1.540       .  S
C2776      H2782   1.110       .  S
C2777      H2783   1.078       .  S
C2777      C2778   1.369       .  D
C2778      C2860   1.490       .  S
C2779      H2784   1.086       .  S
C2779      C2780   1.365       .  D
C2780      C2821   1.490       .  S
C2785      C2786   1.545       .  S
C2785      C2791   1.539       .  S
C2785      C2789   1.553       .  S
C2785      C3037   1.546       .  S
C2786      H2793   1.086       .  S
C2786      C2787   1.368       .  D
C2787      C2788   1.537       .  S
C2787      C2824   1.486       .  S
C2788      C2792   1.533       .  S
C2788      C2790   1.536       .  S
C2788      H2794   1.111       .  S
C2789      H2795   1.079       .  S
C2789      C2790   1.366       .  D
C2790      C2881   1.488       .  S
C2791      H2796   1.086       .  S
C2791      C2792   1.363       .  D
C2792      C2812   1.476       .  S
C2797      C2798   1.546       .  S
C2797      C2803   1.548       .  S
C2797      C2801   1.537       .  S
C2797      C3004   1.537       .  S
C2798      H2805   1.086       .  S
C2798      C2799   1.360       .  D
C2799      C2800   1.532       .  S
C2799      C2809   1.475       .  S
C2800      C2804   1.535       .  S
C2800      C2802   1.532       .  S
C2800      H2806   1.110       .  S
C2801      H2807   1.086       .  S
C2801      C2802   1.365       .  D
C2802      C2908   1.484       .  S
C2803      H2808   1.082       .  S
C2803      C2804   1.370       .  D
C2804      C2848   1.489       .  S
C2809      C2810   1.401       .  A
C2809      C2814   1.411       .  A
C2810      C2811   1.401       .  A
C2810      H2819   1.084       .  S
C2811      C2812   1.415       .  A
C2811      S2815   1.807       .  S
C2812      C2813   1.402       .  A
C2813      C2814   1.398       .  A
C2813      H2820   1.082       .  S
C2814      S2816   1.805       .  S
S2815      H2818   1.400       .  S
S2816      H2817   1.403       .  S
C2821      C2822   1.404       .  A
C2821      C2826   1.413       .  A
C2822      C2823   1.404       .  A
C2822      H2831   1.084       .  S
C2823      C2824   1.417       .  A
C2823      S2827   1.801       .  S
C2824      C2825   1.400       .  A
C2825      C2826   1.398       .  A
C2825      H2832   1.084       .  S
C2826      S2828   1.792       .  S
S2827      H2830   1.402       .  S
S2828      H2829   1.400       .  S
C2833      C2834   1.400       .  A
C2833      C2838   1.416       .  A
C2834      C2835   1.398       .  A
C2834      H2843   1.081       .  S
C2835      C2836   1.412       .  A
C2835      S2839   1.804       .  S
C2836      C2837   1.400       .  A
C2837      C2838   1.398       .  A
C2837      H2844   1.084       .  S
C2838      S2840   1.807       .  S
S2839      H2842   1.403       .  S
S2840      H2841   1.398       .  S
C2845      C2846   1.406       .  A
C2845      C2850   1.418       .  A
C2846      C2847   1.399       .  A
C2846      H2855   1.084       .  S
C2847      C2848   1.413       .  A
C2847      S2851   1.800       .  S
C2848      C2849   1.401       .  A
C2849      C2850   1.399       .  A
C2849      H2856   1.079       .  S
C2850      S2852   1.805       .  S
S2851      H2854   1.406       .  S
S2852      H2853   1.407       .  S
C2857      C2858   1.405       .  A
C2857      C2862   1.408       .  A
C2858      C2859   1.403       .  A
C2858      H2867   1.084       .  S
C2859      C2860   1.421       .  A
C2859      S2863   1.807       .  S
C2860      C2861   1.402       .  A
C2861      C2862   1.391       .  A
C2861      H2868   1.079       .  S
C2862      S2864   1.798       .  S
S2863      H2866   1.401       .  S
S2864      H2865   1.407       .  S
C2869      C2870   1.401       .  A
C2869      C2874   1.413       .  A
C2870      C2871   1.399       .  A
C2870      H2879   1.084       .  S
C2871      C2872   1.411       .  A
C2871      S2875   1.796       .  S
C2872      C2873   1.403       .  A
C2873      C2874   1.396       .  A
C2873      H2880   1.084       .  S
C2874      S2876   1.804       .  S
S2875      H2878   1.406       .  S
S2876      H2877   1.406       .  S
C2881      C2882   1.399       .  A
C2881      C2886   1.414       .  A
C2882      C2883   1.401       .  A
C2882      H2891   1.080       .  S
C2883      C2884   1.411       .  A
C2883      S2887   1.802       .  S
C2884      C2885   1.404       .  A
C2885      C2886   1.408       .  A
C2885      H2892   1.083       .  S
C2886      S2888   1.807       .  S
S2887      H2890   1.407       .  S
S2888      H2889   1.407       .  S
C2893      C2894   1.405       .  A
C2893      C2898   1.412       .  A
C2894      C2895   1.401       .  A
C2894      H2903   1.084       .  S
C2895      C2896   1.415       .  A
C2895      S2899   1.802       .  S
C2896      C2897   1.405       .  A
C2897      C2898   1.400       .  A
C2897      H2904   1.084       .  S
C2898      S2900   1.798       .  S
S2899      H2902   1.405       .  S
S2900      H2901   1.406       .  S
C2905      C2906   1.405       .  A
C2905      C2910   1.410       .  A
C2906      C2907   1.404       .  A
C2906      H2915   1.083       .  S
C2907      C2908   1.413       .  A
C2907      S2911   1.807       .  S
C2908      C2909   1.403       .  A
C2909      C2910   1.397       .  A
C2909      H2916   1.084       .  S
C2910      S2912   1.796       .  S
S2911      H2914   1.407       .  S
S2912      H2913   1.406       .  S
C2917      C2918   1.403       .  A
C2917      C2922   1.418       .  A
C2918      C2919   1.399       .  A
C2918      H2927   1.084       .  S
C2919      C2920   1.415       .  A
C2919      S2923   1.797       .  S
C2920      C2921   1.404       .  A
C2921      C2922   1.399       .  A
C2921      H2928   1.084       .  S
C2922      S2924   1.805       .  S
S2923      H2926   1.405       .  S
S2924      H2925   1.405       .  S
C2929      C2930   1.405       .  A
C2929      C2934   1.410       .  A
C2930      C2931   1.404       .  A
C2930      H2939   1.084       .  S
C2931      C2932   1.414       .  A
C2931      S2935   1.802       .  S
C2932      C2933   1.399       .  A
C2933      C2934   1.397       .  A
C2933      H2940   1.077       .  S
C2934      S2936   1.804       .  S
S2935      H2938   1.406       .  S
S2936      H2937   1.407       .  S
C2941      C2942   1.404       .  A
C2941      C2946   1.415       .  A
C2942      C2943   1.406       .  A
C2942      H2951   1.083       .  S
C2943      C2944   1.413       .  A
C2943      S2947   1.805       .  S
C2944      C2945   1.403       .  A
C2945      C2946   1.398       .  A
C2945      H2952   1.084       .  S
C2946      S2948   1.803       .  S
S2947      H2950   1.407       .  S
S2948      H2949   1.407       .  S
C2953      C2954   1.404       .  A
C2953      C2958   1.414       .  A
C2954      C2955   1.408       .  A
C2954      H2963   1.082       .  S
C2955      C2956   1.422       .  A
C2955      S2959   1.810       .  S
C2956      C2957   1.411       .  A
C2957      C2958   1.396       .  A
C2957      H2964   1.077       .  S
C2958      S2960   1.803       .  S
S2959      H2962   1.407       .  S
S2960      H2961   1.408       .  S
C2965      C2966   1.407       .  A
C2965      C2970   1.417       .  A
C2966      C2967   1.409       .  A
C2966      H2975   1.082       .  S
C2967      C2968   1.419       .  A
C2967      S2971   1.807       .  S
C2968      C2969   1.411       .  A
C2969      C2970   1.402       .  A
C2969      H2976   1.079       .  S
C2970      S2972   1.811       .  S
S2971      H2974   1.406       .  S
S2972      H2973   1.406       .  S
C2977      C2978   1.414       .  A
C2977      C2982   1.427       .  A
C2978      C2979   1.399       .  A
C2978      H2987   1.074       .  S
C2979      C2980   1.404       .  A
C2979      S2983   1.805       .  S
C2980      C2981   1.396       .  A
C2981      C2982   1.402       .  A
C2981      H2988   1.083       .  S
C2982      S2984   1.814       .  S
S2983      H2986   1.404       .  S
S2984      H2985   1.406       .  S
C2989      C2990   1.411       .  A
C2989      C2994   1.426       .  A
C2990      C2991   1.395       .  A
C2990      H2999   1.073       .  S
C2991      C2992   1.411       .  A
C2991      S2995   1.804       .  S
C2992      C2993   1.401       .  A
C2993      C2994   1.405       .  A
C2993      H3000   1.083       .  S
C2994      S2996   1.813       .  S
S2995      H2998   1.408       .  S
S2996      H2997   1.406       .  S
C3001      C3002   1.403       .  A
C3001      C3006   1.415       .  A
C3002      C3003   1.401       .  A
C3002      H3011   1.084       .  S
C3003      C3004   1.424       .  A
C3003      S3007   1.800       .  S
C3004      C3005   1.410       .  A
C3005      C3006   1.396       .  A
C3005      H3012   1.083       .  S
C3006      S3008   1.804       .  S
S3007      H3010   1.405       .  S
S3008      H3009   1.408       .  S
C3013      C3014   1.405       .  A
C3013      C3018   1.412       .  A
C3014      C3015   1.410       .  A
C3014      H3023   1.082       .  S
C3015      C3016   1.423       .  A
C3015      S3019   1.810       .  S
C3016      C3017   1.412       .  A
C3017      C3018   1.394       .  A
C3017      H3024   1.075       .  S
C3018      S3020   1.803       .  S
S3019      H3022   1.406       .  S
S3020      H3021   1.408       .  S
C3025      C3026   1.416       .  A
C3025      C3030   1.426       .  A
C3026      C3027   1.400       .  A
C3026      H3035   1.074       .  S
C3027      C3028   1.404       .  A
C3027      S3031   1.806       .  S
C3028      C3029   1.397       .  A
C3029      C3030   1.404       .  A
C3029      H3036   1.083       .  S
C3030      S3032   1.813       .  S
S3031      H3034   1.406       .  S
S3032      H3033   1.406       .  S
C3037      C3038   1.416       .  A
C3037      C3042   1.426       .  A
C3038      C3039   1.400       .  A
C3038      H3047   1.074       .  S
C3039      C3040   1.404       .  A
C3039      S3043   1.805       .  S
C3040      C3041   1.398       .  A
C3041      C3042   1.405       .  A
C3041      H3048   1.083       .  S
C3042      S3044   1.809       .  S
S3043      H3046   1.404       .  S
S3044      H3045   1.406       .  S
