geometry optimzed in LAMMPS
_audit_creation_date              2020-12-01 
_audit_creation_method            'lammps2cif' 
_symmetry_space_group_name_H-M    'P1' 
_symmetry_Int_Tables_number       1 
_symmetry_cell_setting            triclinic 
loop_ 
_symmetry_equiv_pos_as_xyz 
  x,y,z 
_cell_length_a                    31.72337666 
_cell_length_b                    31.556146208908604 
_cell_length_c                    33.18796138903134 
_cell_angle_alpha                 93.4626283110097 
_cell_angle_beta                  86.05167250368156 
_cell_angle_gamma                 91.14118931206063 
loop_ 
_atom_site_label 
_atom_site_type_symbol 
_atom_site_fract_x 
_atom_site_fract_y 
_atom_site_fract_z 
_atom_site_charge 
C1          C  0.33141077  0.40622290  0.33991024     0.86700
C2          C  0.30494343  0.38283787  0.37280816    -0.53500
C3          C  0.32731028  0.35835597  0.39660902     0.09700
C4          C  0.37629743  0.35962388  0.38433397     0.20600
C5          C  0.36503603  0.43147121  0.36365165    -0.54200
C6          C  0.38888902  0.40783438  0.38739802     0.09800
C7          C  0.35706802  0.37063615  0.31575198    -0.53800
C8          C  0.38129366  0.34658775  0.33762416     0.10300
H9          H  0.27072678  0.38470815  0.37626924     0.14800
H10         H  0.39510562  0.33998820  0.40292564     0.00600
H11         H  0.36881255  0.46566799  0.36248022     0.15200
H12         H  0.35790491  0.36605092  0.28301325     0.14900
C13         C  0.15008020  0.08513200  0.14413478     0.86700
C14         C  0.12072261  0.11328413  0.17415949    -0.53500
C15         C  0.09386686  0.13988496  0.15673324     0.09700
C16         C  0.09926736  0.13497691  0.10929531     0.20600
C17         C  0.11986014  0.06114683  0.11656504    -0.54200
C18         C  0.09298003  0.08570174  0.09798514     0.09800
C19         C  0.17307508  0.11812871  0.11761520    -0.53800
C20         C  0.14763947  0.14536956  0.09978521     0.10300
H21         H  0.12225272  0.11326149  0.20672576     0.14800
H22         H  0.07809256  0.15563447  0.09414603     0.00600
H23         H  0.11989815  0.02677732  0.11183921     0.15200
H24         H  0.20702808  0.12051006  0.11422230     0.14900
O25         O  0.02591437  0.48242220  0.40453722    -0.79900
O26         O  0.46082935  0.48171194  0.07763607    -0.79900
O27         O  0.07117638  0.47453447  0.49434778    -0.79900
O28         O  0.42405834  0.41895673  0.45107258    -0.79900
O29         O  0.03419544  0.46731339  0.04909226    -0.80000
O30         O  0.43834175  0.46406794  0.40324293    -0.79900
O31         O  0.44656999  0.43025484  0.03278674    -0.79900
O32         O  0.06754316  0.48497154  0.45699878    -0.79900
C33         C  0.06024133  0.47321304  0.41978215     1.09800
C34         C  0.45238059  0.44274542  0.06893127     1.09700
C35         C  0.06519939  0.45577698  0.02634199     1.09800
C36         C  0.42053746  0.42972727  0.41487980     1.09700
O37         O  0.42509390  0.04529344  0.44593165    -0.79900
O38         O  0.02594673  0.05000145  0.08158935    -0.80000
O39         O  0.06266794  0.05146676  0.45709877    -0.79900
O40         O  0.40325148  0.51017880  0.03970992    -0.79900
O41         O  0.45378577  0.55978156  0.03737721    -0.79900
O42         O  0.50160627  0.06736449  0.44110990    -0.79900
O43         O  0.38125164  0.99454730  0.46149512    -0.79900
O44         O  0.07559180  0.05322506  0.03241159    -0.79900
Co45       Co  0.47386457  0.01299255  0.42679151     1.51500
Co46       Co  0.99636085  0.51544509  0.03785376     1.51700
Co47       Co  0.03174132  0.02162075  0.50017482     1.51600
Co48       Co  0.41860253  0.46478307  0.99616046     1.51500
O49         O  0.47864210  0.48931611  0.48155122    -1.41800
C50         C  0.38879266  0.02952838  0.44635240     1.09700
C51         C  0.06297395  0.06366785  0.06928134     1.09800
C52         C  0.04053707  0.07236544  0.43685308     1.09800
C53         C  0.41686090  0.04761713  0.04901381     1.09700
O54         O  0.31246351  0.29206653  0.43073763    -0.79900
O55         O  0.27653649  0.23238641  0.08356547    -0.79900
O56         O  0.30349796  0.29943725  0.00966331    -0.79900
O57         O  0.29016738  0.18030747  0.48781890    -0.78900
O58         O  0.26839710  0.31043859  0.06833042    -0.80000
O59         O  0.30259371  0.20227350  0.42858303    -0.79900
O60         O  0.25913990  0.16796872  0.06190332    -0.79900
O61         O  0.27204418  0.34512368  0.45052682    -0.79900
C62         C  0.30400098  0.33140146  0.42819589     1.09800
C63         C  0.28098521  0.19327363  0.08281755     1.09700
C64         C  0.30146772  0.31534796  0.04517148     1.09800
C65         C  0.30130331  0.17234581  0.45142617     1.09700
O66         O  0.23022819  0.21411285  0.41386890    -0.79900
O67         O  0.17912729  0.29602773  0.05956896    -0.80000
O68         O  0.19413376  0.29961627  0.46094846    -0.79900
O69         O  0.17451875  0.17122414  0.03652937    -0.79900
O70         O  0.18711689  0.21240651  0.08989702    -0.79900
O71         O  0.23427183  0.27916737  0.41040750    -0.79900
O72         O  0.20340629  0.17415269  0.46126241    -0.79900
O73         O  0.22068506  0.33934340  0.52424220    -0.79900
Co74       Co  0.26611885  0.24863115  0.44922178     1.51500
Co75       Co  0.22737798  0.26172692  0.07063637     1.51700
Co76       Co  0.24923959  0.29778863  0.48436972     1.51600
Co77       Co  0.23227695  0.17783164  0.01080978     1.51500
O78         O  0.23439975  0.24349963  0.50979451    -1.41800
C79         C  0.20435061  0.18613837  0.42595938     1.09700
C80         C  0.18614355  0.33158481  0.04442147     1.09800
C81         C  0.20045807  0.29654947  0.42352329     1.09800
C82         C  0.16822421  0.17972923  0.07391518     1.09700
O83         O  0.03665006  0.30465457  0.32663939    -0.79900
O84         O  0.47399525  0.27721037  0.16698505    -0.79900
O85         O  0.08323222  0.28070351  0.22257192    -0.79900
O86         O  0.40227052  0.28905776  0.28770681    -0.79900
O87         O  0.03922283  0.27444497  0.17380411    -0.80000
O88         O  0.45110821  0.31749212  0.32419420    -0.79900
O89         O  0.45000158  0.31561725  0.21955137    -0.79900
O90         O  0.08804456  0.26672671  0.29342389    -0.79900
C91         C  0.07553959  0.29619043  0.31875209     1.09800
C92         C  0.45979941  0.31227772  0.18201175     1.09700
C93         C  0.06991033  0.29286145  0.19036037     1.09800
C94         C  0.41288928  0.31569829  0.31592410     1.09700
O95         O  0.43531113  0.22677604  0.32764793    -0.79900
O96         O  0.03127744  0.18489396  0.17336366    -0.80000
O97         O  0.06397853  0.19058066  0.28794565    -0.79900
O98         O  0.39334439  0.24805625  0.21177607    -0.79900
O99         O  0.44350507  0.20520073  0.18373992    -0.79900
O100        O  0.51970129  0.21725350  0.33679138    -0.79900
O101        O  0.43220429  0.20384609  0.26395959    -0.79900
O102        O  0.08347366  0.19283122  0.21273481    -0.79900
Co103      Co  0.48640357  0.26582382  0.32352656     1.51500
Co104      Co  0.99759067  0.23509425  0.20021199     1.51700
Co105      Co  0.05607111  0.23631053  0.25325011     1.51600
Co106      Co  0.44114543  0.25937018  0.24270676     1.51500
O107        O  0.49715571  0.25740344  0.26105938    -1.41800
C108        C  0.42273838  0.20005134  0.30075167     1.09700
C109        C  0.06796414  0.17409919  0.18202280     1.09800
C110        C  0.04767773  0.19112357  0.32348279     1.09800
C111        C  0.40491768  0.21742234  0.18710306     1.09700
O112        O  0.27633769  0.45892439  0.32473893    -0.79900
O113        O  0.28380380  0.02099226  0.16272766    -0.79900
O114        O  0.30046674  0.42126834  0.19100481    -0.79900
O115        O  0.26816746  0.08511461  0.26787704    -0.79900
O116        O  0.25596648  0.44651286  0.14924279    -0.80000
O117        O  0.30140221  0.03383918  0.29173004    -0.79900
O118        O  0.27492527  0.07869227  0.19989957    -0.79900
O119        O  0.30972584  0.42379106  0.27370056    -0.79900
C120        C  0.30478858  0.43195173  0.31163811     1.09800
C121        C  0.29426518  0.05874664  0.17052490     1.09700
C122        C  0.28982568  0.42686707  0.15553921     1.09800
C123        C  0.29895659  0.07275547  0.28577064     1.09700
O124        O  0.22396228  0.03575856  0.33539962    -0.79900
O125        O  0.17960275  0.46354892  0.20218206    -0.80000
O126        O  0.22008667  0.40933936  0.28819779    -0.79900
O127        O  0.18895763  0.06402908  0.20093702    -0.79900
O128        O  0.19918068  0.02305664  0.14515767    -0.79900
O129        O  0.19271773  0.47178223  0.29019963    -0.79900
O130        O  0.19239407  0.05596704  0.28170503    -0.79900
O131        O  0.21394897  0.40392942  0.20427700    -0.79900
Co132      Co  0.24741437  0.00173558  0.29012450     1.51500
Co133      Co  0.23170065  0.49478317  0.18543926     1.51700
Co134      Co  0.26094093  0.41836096  0.23889625     1.51600
Co135      Co  0.23548117  0.04430743  0.23543017     1.51500
O136        O  0.25963365  0.48248953  0.23466627    -1.41800
C137        C  0.19707247  0.05846108  0.31978119     1.09700
C138        C  0.18134094  0.42365125  0.19682601     1.09800
C139        C  0.19127287  0.43478457  0.30157066     1.09800
C140        C  0.18087219  0.05543346  0.16393444     1.09700
C141        C  0.40406200  0.12445756  0.30298535     0.23800
C142        C  0.39216589  0.16695285  0.30999202    -0.24300
C143        C  0.34942677  0.17768107  0.31266642     0.18700
C144        C  0.31880127  0.14628650  0.30716718     0.23800
C145        C  0.33066208  0.10380204  0.29860273    -0.24200
C146        C  0.37333587  0.09278059  0.29778043     0.18700
F147        F  0.38553680  0.05217435  0.28835406    -0.14200
F148        F  0.44554849  0.11425651  0.29799387    -0.16500
F149        F  0.27777252  0.15788302  0.30764756    -0.16500
F150        F  0.33767228  0.21897467  0.31669577    -0.14200
C151        C  0.07640748  0.37018051  0.19304297     0.23800
C152        C  0.08937029  0.33083377  0.17456438    -0.24300
C153        C  0.12897084  0.32713979  0.15395294     0.18700
C154        C  0.15765570  0.36086555  0.15627436     0.23800
C155        C  0.14697060  0.39809407  0.18015215    -0.24200
C156        C  0.10513232  0.40419798  0.19528834     0.18700
F157        F  0.09394803  0.44033123  0.21741248    -0.14200
F158        F  0.03860895  0.37337899  0.21471373    -0.16500
F159        F  0.19767789  0.35504104  0.13980393    -0.16500
F160        F  0.14209128  0.28880870  0.13753279    -0.14200
C161        C  0.31159299  0.41779138  0.08179627     0.23800
C162        C  0.31554013  0.40629853  0.12155918    -0.24300
C163        C  0.33888351  0.36985232  0.12780433     0.18700
C164        C  0.34779386  0.34038739  0.09557513     0.23800
C165        C  0.33223274  0.34707994  0.05815215    -0.24200
C166        C  0.32207840  0.38854524  0.04962515     0.18700
F167        F  0.31138903  0.39687589  0.01203880    -0.14200
F168        F  0.29319712  0.45477670  0.07442206    -0.16500
F169        F  0.36099382  0.30118920  0.10331044    -0.16500
F170        F  0.34698570  0.35917873  0.16551794    -0.14200
C171        C  0.16125994  0.12233615  0.41058424     0.23800
C172        C  0.17850000  0.16144135  0.39795678    -0.24300
C173        C  0.18305116  0.16826894  0.35657415     0.18700
C174        C  0.18058938  0.13364666  0.32894450     0.23800
C175        C  0.17581407  0.09259962  0.34332397    -0.24200
C176        C  0.16225297  0.08732494  0.38340710     0.18700
F177        F  0.15424480  0.04802184  0.39682340    -0.14200
F178        F  0.15050179  0.11606575  0.45014197    -0.16500
F179        F  0.19103605  0.13943422  0.28922654    -0.16500
F180        F  0.19674787  0.20631816  0.34320075    -0.14200
C181        C  0.12986728  0.32427479  0.41089927     0.23800
C182        C  0.17055369  0.31144289  0.39622483    -0.24300
C183        C  0.18135016  0.30944426  0.35441392     0.18700
C184        C  0.15017104  0.31299324  0.32770952     0.23800
C185        C  0.10780370  0.31700183  0.34261145    -0.24200
C186        C  0.09839549  0.32715459  0.38399634     0.18700
F187        F  0.05803604  0.33401905  0.39897693    -0.14200
F188        F  0.11940111  0.32971773  0.45121248    -0.16500
F189        F  0.16048694  0.30619810  0.28743235    -0.16500
F190        F  0.22109989  0.29991199  0.33913482    -0.14200
C191        C  0.33364163  0.18764886  0.17610297     0.23800
C192        C  0.37492975  0.19679171  0.16098527    -0.24300
C193        C  0.38602839  0.19190715  0.11932736     0.18700
C194        C  0.35477232  0.18336898  0.09259933     0.23800
C195        C  0.31267659  0.17895797  0.10754388    -0.24200
C196        C  0.30245882  0.17846672  0.14926942     0.18700
F197        F  0.26158968  0.17434379  0.16376659    -0.14200
F198        F  0.32302702  0.19090257  0.21649188    -0.16500
F199        F  0.36452258  0.18544086  0.05224030    -0.16500
F200        F  0.42583855  0.20117940  0.10428473    -0.14200
C201        C  0.31618835  0.05636840  0.45229785     0.23800
C202        C  0.35591395  0.05435550  0.43125802    -0.24300
C203        C  0.36917906  0.08648185  0.40547082     0.18700
C204        C  0.34930582  0.12519651  0.40993360     0.23800
C205        C  0.31422261  0.13014610  0.43735636    -0.24200
C206        C  0.29525225  0.09480907  0.45557389     0.18700
F207        F  0.25961255  0.09896625  0.98052255    -0.14200
F208        F  0.30160338  0.02439925  0.97536916    -0.16500
F209        F  0.36866753  0.15936675  0.39351457    -0.16500
F210        F  0.40621510  0.08333652  0.38245096    -0.14200
C211        C  0.08114149  0.38299173  0.04304678     0.23800
C212        C  0.09443699  0.42474686  0.03711975    -0.24300
C213        C  0.13684827  0.43691697  0.03946829     0.18700
C214        C  0.16652968  0.40678712  0.04546100     0.23800
C215        C  0.15398873  0.36406014  0.04825680    -0.24200
C216        C  0.11092139  0.35248082  0.04862922     0.18700
F217        F  0.09811166  0.31132020  0.05081453    -0.14200
F218        F  0.04007739  0.37124346  0.04004139    -0.16500
F219        F  0.20773418  0.41905013  0.04680087    -0.16500
F220        F  0.14958082  0.47781133  0.03479993    -0.14200
C221        C  0.13619262  0.45165643  0.40333549     0.23800
C222        C  0.09370068  0.45058775  0.39314798    -0.24300
C223        C  0.08447262  0.43176736  0.35496341     0.18700
C224        C  0.11712652  0.41979032  0.32609901     0.23800
C225        C  0.15950086  0.42590593  0.33473794    -0.24200
C226        C  0.16864840  0.43956403  0.37435007     0.18700
F227        F  0.20934166  0.44616961  0.38365552    -0.14200
F228        F  0.14706120  0.46846397  0.43986579    -0.16500
F229        F  0.10741085  0.40504728  0.28861751    -0.16500
F230        F  0.04392758  0.92708972  0.34453113    -0.14200
C231        C  0.34932150  0.08046008  0.07216062     0.23800
C232        C  0.39103139  0.07245127  0.08012945    -0.24300
C233        C  0.40163027  0.07232487  0.12067447     0.18700
C234        C  0.36979552  0.07462183  0.15227490     0.23800
C235        C  0.32728963  0.07708920  0.14348745    -0.24200
C236        C  0.31754853  0.08165471  0.10337838     0.18700
F237        F  0.27665987  0.08261908  0.09390714    -0.14200
F238        F  0.33868476  0.08195461  0.03350212    -0.16500
F239        F  0.37974953  0.06788593  0.19049629    -0.16500
F240        F  0.44158434  0.06330041  0.12927265    -0.14200
C241        C  0.45223758  0.36738170  0.08611679     0.23800
C242        C  0.45224575  0.41059781  0.09941599    -0.24300
C243        C  0.45310103  0.42166615  0.14114860     0.18700
C244        C  0.45409698  0.38986680  0.16885257     0.23800
C245        C  0.45522804  0.34685501  0.15492838    -0.24200
C246        C  0.45407310  0.33620278  0.11331637     0.18700
F247        F  0.45442111  0.29513838  0.09838738    -0.14200
F248        F  0.45132039  0.35457497  0.04634643    -0.16500
F249        F  0.45523239  0.40118814  0.20888306    -0.16500
F250        F  0.45318500  0.46299834  0.15512584    -0.14200
C251        C  0.56381699  0.08859525  0.36795341     0.23800
C252        C  0.05831837  0.10185783  0.40900909    -0.24300
C253        C  0.05941308  0.14481886  0.42151650     0.18700
C254        C  0.06121110  0.17479288  0.39266946     0.23800
C255        C  0.06095293  0.16145317  0.35145009    -0.24200
C256        C  0.56564802  0.11858491  0.33896592     0.18700
F257        F  0.56665542  0.10551753  0.29917769    -0.14200
F258        F  0.56332995  0.04671859  0.35597523    -0.16500
F259        F  0.05894348  0.21660320  0.40499763    -0.16500
F260        F  0.05428131  0.15748557  0.46138752    -0.14200
C261        C  0.33140931  0.40622484  0.83991192     0.86700
C262        C  0.30494171  0.38284017  0.87280985    -0.53500
C263        C  0.32730829  0.35835795  0.89661060     0.09700
C264        C  0.37629550  0.35962529  0.88433548     0.20600
C265        C  0.36503491  0.43147276  0.86365308    -0.54200
C266        C  0.38888777  0.40783556  0.88739914     0.09800
C267        C  0.35706620  0.37063770  0.81575361    -0.53800
C268        C  0.38129175  0.34658913  0.83762579     0.10300
H269        H  0.27072508  0.38471081  0.87627095     0.14800
H270        H  0.39510350  0.33998945  0.90292716     0.00600
H271        H  0.36881199  0.46566947  0.86248149     0.15200
H272        H  0.35790314  0.36605253  0.78301485     0.14900
C273        C  0.15008091  0.08513152  0.64413464     0.86700
C274        C  0.12072380  0.11328424  0.67415889    -0.53500
C275        C  0.09386814  0.13988481  0.65673211     0.09700
C276        C  0.09926892  0.13497602  0.60929420     0.20600
C277        C  0.11986109  0.06114600  0.61656516    -0.54200
C278        C  0.09298124  0.08570089  0.59798473     0.09800
C279        C  0.17307719  0.11812741  0.61761439    -0.53800
C280        C  0.14764061  0.14536788  0.59978379     0.10300
H281        H  0.12225364  0.11326205  0.70672480     0.14800
H282        H  0.07809424  0.15563352  0.59414441     0.00600
H283        H  0.11989882  0.02677680  0.61183985     0.15200
H284        H  0.20702369  0.12050807  0.61422209     0.14900
O285        O  0.02591270  0.48242360  0.90453796    -0.79900
O286        O  0.46083040  0.48171226  0.57763608    -0.79900
O287        O  0.07117576  0.47453569  0.99434820    -0.79900
O288        O  0.42405768  0.41895708  0.95107288    -0.79900
O289        O  0.03419593  0.46731317  0.54909198    -0.80000
O290        O  0.43834224  0.46406790  0.90324317    -0.79900
O291        O  0.44657265  0.43025486  0.53278660    -0.79900
O292        O  0.06754183  0.48497283  0.95699927    -0.79900
C293        C  0.06023986  0.47321461  0.91978263     1.09800
C294        C  0.45238212  0.44274558  0.56893137     1.09700
C295        C  0.06519966  0.45577608  0.52634167     1.09800
C296        C  0.42053708  0.42972766  0.91488019     1.09700
O297        O  0.42509723  0.04529420  0.94593275    -0.79900
O298        O  0.02594774  0.05000190  0.58158867    -0.80000
O299        O  0.06266516  0.05146822  0.95709932    -0.79900
O300        O  0.40325183  0.51017811  0.53971081    -0.79900
O301        O  0.45378497  0.55978205  0.53737708    -0.79900
O302        O  0.50160928  0.06736267  0.94111153    -0.79900
O303        O  0.38125286  0.99454933  0.96149373    -0.79900
O304        O  0.07559358  0.05322375  0.53241129    -0.79900
Co305      Co  0.47386643  0.01299179  0.92679208     1.51500
Co306      Co  0.99636183  0.51544539  0.53785317     1.51700
Co307      Co  0.03173965  0.02162135  0.00017550     1.51600
Co308      Co  0.41860317  0.46478248  0.49616091     1.51500
O309        O  0.47864262  0.48931463  0.98155160    -1.41800
C310        C  0.38879557  0.02953064  0.94635192     1.09700
C311        C  0.06297540  0.06366719  0.56928086     1.09800
C312        C  0.04053356  0.07236593  0.93685345     1.09800
C313        C  0.41686069  0.04761655  0.54901457     1.09700
O314        O  0.31246147  0.29206856  0.93073917    -0.79900
O315        O  0.27653484  0.23238657  0.58356705    -0.79900
O316        O  0.30349900  0.29943636  0.50966349    -0.79900
O317        O  0.29016293  0.18030449  0.98782055    -0.78900
O318        O  0.26839536  0.31043759  0.56832926    -0.80000
O319        O  0.30259207  0.20227575  0.92858650    -0.79900
O320        O  0.25914511  0.16796799  0.56190156    -0.79900
O321        O  0.27204170  0.34512545  0.95052806    -0.79900
C322        C  0.30399868  0.33140337  0.92819725     1.09800
C323        C  0.28098675  0.19327416  0.58281796     1.09700
C324        C  0.30146702  0.31534695  0.54517177     1.09800
C325        C  0.30130037  0.17234617  0.95142757     1.09700
O326        O  0.23022874  0.21411390  0.91387032    -0.79900
O327        O  0.17912636  0.29602503  0.55956424    -0.80000
O328        O  0.19413100  0.29961854  0.96095177    -0.79900
O329        O  0.17452428  0.17121772  0.53652765    -0.79900
O330        O  0.18711591  0.21240532  0.58989398    -0.79900
O331        O  0.23426857  0.27916846  0.91041069    -0.79900
O332        O  0.20340103  0.17415661  0.96126377    -0.79900
O333        O  0.22068513  0.33934530  0.02424514    -0.79900
Co334      Co  0.26611726  0.24863321  0.94922435     1.51500
Co335      Co  0.22737683  0.26172555  0.57063421     1.51700
Co336      Co  0.24923752  0.29779047  0.98437142     1.51600
Co337      Co  0.23228204  0.17782948  0.51080831     1.51500
O338        O  0.23439814  0.24350173  0.00979660    -1.41800
C339        C  0.20434881  0.18614112  0.92596012     1.09700
C340        C  0.18614301  0.33158242  0.54441760     1.09800
C341        C  0.20045481  0.29655056  0.92352658     1.09800
C342        C  0.16822643  0.17972588  0.57391272     1.09700
O343        O  0.03664866  0.30465170  0.82663926    -0.79900
O344        O  0.47399417  0.27721129  0.66698706    -0.79900
O345        O  0.08323230  0.28070445  0.72257163    -0.79900
O346        O  0.40226915  0.28905857  0.78770946    -0.79900
O347        O  0.03922564  0.27444267  0.67380168    -0.80000
O348        O  0.45110710  0.31749492  0.82419537    -0.79900
O349        O  0.44999944  0.31561786  0.71955321    -0.79900
O350        O  0.08804438  0.26672567  0.79342374    -0.79900
C351        C  0.07553835  0.29618840  0.81875257     1.09800
C352        C  0.45979768  0.31227844  0.68201360     1.09700
C353        C  0.06991199  0.29286059  0.69035874     1.09800
C354        C  0.41288788  0.31569999  0.81592596     1.09700
O355        O  0.43531192  0.22677857  0.82765192    -0.79900
O356        O  0.03127761  0.18489210  0.67336295    -0.80000
O357        O  0.06397833  0.19057927  0.78794282    -0.79900
O358        O  0.39334312  0.24805601  0.71177945    -0.79900
O359        O  0.44350457  0.20520140  0.68374325    -0.79900
O360        O  0.51970275  0.21725813  0.83679559    -0.79900
O361        O  0.43220372  0.20384734  0.76396389    -0.79900
O362        O  0.08347510  0.19283259  0.71273238    -0.79900
Co363      Co  0.48640381  0.26582734  0.82352882     1.51500
Co364      Co  0.99759159  0.23509347  0.70020987     1.51700
Co365      Co  0.05607162  0.23631053  0.75324864     1.51600
Co366      Co  0.44114413  0.25937095  0.74270971     1.51500
O367        O  0.49715469  0.25740532  0.76106163    -1.41800
C368        C  0.42273863  0.20005325  0.80075630     1.09700
C369        C  0.06796512  0.17409899  0.68202132     1.09800
C370        C  0.04767625  0.19112073  0.82347943     1.09800
C371        C  0.40491709  0.21742251  0.68710629     1.09700
O372        O  0.27633627  0.45892651  0.82474063    -0.79900
O373        O  0.28380392  0.02099340  0.66272923    -0.79900
O374        O  0.30046767  0.42126996  0.69100663    -0.79900
O375        O  0.26816778  0.08511692  0.76787864    -0.79900
O376        O  0.25596750  0.44651387  0.64924422    -0.80000
O377        O  0.30140156  0.03384145  0.79173248    -0.79900
O378        O  0.27492647  0.07869359  0.69990123    -0.79900
O379        O  0.30972559  0.42379405  0.77370243    -0.79900
C380        C  0.30478755  0.43195414  0.81163994     1.09800
C381        C  0.29426608  0.05874754  0.67052670     1.09700
C382        C  0.28982658  0.42686806  0.65554090     1.09800
C383        C  0.29895640  0.07275779  0.78577303     1.09700
O384        O  0.22396046  0.03576126  0.83540053    -0.79900
O385        O  0.17960300  0.46354884  0.70218232    -0.80000
O386        O  0.22008624  0.40934158  0.78819894    -0.79900
O387        O  0.18895889  0.06403033  0.70093707    -0.79900
O388        O  0.19918114  0.02305637  0.64515848    -0.79900
O389        O  0.19271687  0.47178427  0.79019993    -0.79900
O390        O  0.19239353  0.05596931  0.78170508    -0.79900
O391        O  0.21395010  0.40393008  0.70427805    -0.79900
Co392      Co  0.24741360  0.00173774  0.79012597     1.51500
Co393      Co  0.23170084  0.49478395  0.68544036     1.51700
Co394      Co  0.26094129  0.41836284  0.73889781     1.51600
Co395      Co  0.23548176  0.04430935  0.73543137     1.51500
O396        O  0.25963354  0.48249132  0.73466774    -1.41800
C397        C  0.19707114  0.05846380  0.81978134     1.09700
C398        C  0.18134196  0.42365116  0.69682621     1.09800
C399        C  0.19127197  0.43478663  0.80157107     1.09800
C400        C  0.18087308  0.05543362  0.66393473     1.09700
C401        C  0.40406176  0.12445946  0.80299124     0.23800
C402        C  0.39216596  0.16695491  0.80999755    -0.24300
C403        C  0.34942687  0.17768326  0.81267100     0.18700
C404        C  0.31880131  0.14628893  0.80717033     0.23800
C405        C  0.33066184  0.10380433  0.79860612    -0.24200
C406        C  0.37333550  0.09278263  0.79778552     0.18700
F407        F  0.38553637  0.05217628  0.78835974    -0.14200
F408        F  0.44554822  0.11425809  0.79800075    -0.16500
F409        F  0.27777287  0.15788592  0.80764887    -0.16500
F410        F  0.33767262  0.21897694  0.81669996    -0.14200
C411        C  0.07640886  0.37017965  0.69303896     0.23800
C412        C  0.08937254  0.33083243  0.67456205    -0.24300
C413        C  0.12897423  0.32713806  0.65395276     0.18700
C414        C  0.15765890  0.36086398  0.65627487     0.23800
C415        C  0.14697259  0.39809309  0.68015137    -0.24200
C416        C  0.10513357  0.40419719  0.69528516     0.18700
F417        F  0.09394801  0.44033094  0.71740786    -0.14200
F418        F  0.03860923  0.37337865  0.71470770    -0.16500
F419        F  0.19768179  0.35503919  0.63980633    -0.16500
F420        F  0.14209569  0.28880665  0.63753426    -0.14200
C421        C  0.31159335  0.41779110  0.58179800     0.23800
C422        C  0.31554046  0.40629855  0.62156102    -0.24300
C423        C  0.33888239  0.36985150  0.62780643     0.18700
C424        C  0.34779134  0.34038585  0.59557752     0.23800
C425        C  0.33223117  0.34707892  0.55815420    -0.24200
C426        C  0.32207750  0.38854437  0.54962706     0.18700
F427        F  0.31138772  0.39687493  0.51204081    -0.14200
F428        F  0.29319831  0.45477680  0.57442358    -0.16500
F429        F  0.36098955  0.30118715  0.60331329    -0.16500
F430        F  0.34698422  0.35917799  0.66552015    -0.14200
C431        C  0.16125704  0.12234003  0.91058306     0.23800
C432        C  0.17849923  0.16144463  0.89795622    -0.24300
C433        C  0.18305276  0.16827209  0.85657362     0.18700
C434        C  0.18059059  0.13364997  0.82894383     0.23800
C435        C  0.17581275  0.09260306  0.84332318    -0.24200
C436        C  0.16224926  0.08732888  0.88340579     0.18700
F437        F  0.15423829  0.04802606  0.89682171    -0.14200
F438        F  0.15049710  0.11606986  0.95014051    -0.16500
F439        F  0.19103931  0.13943715  0.78922614    -0.16500
F440        F  0.19675194  0.20632073  0.84320065    -0.14200
C441        C  0.12986264  0.32427197  0.91090196     0.23800
C442        C  0.17055010  0.31144300  0.89622802    -0.24300
C443        C  0.18134758  0.30944609  0.85441728     0.18700
C444        C  0.15016885  0.31299378  0.82771226     0.23800
C445        C  0.10780111  0.31700001  0.84261335    -0.24200
C446        C  0.09839141  0.32715107  0.88399836     0.18700
F447        F  0.05803125  0.33401274  0.89897827    -0.14200
F448        F  0.11939508  0.32971236  0.95121513    -0.16500
F449        F  0.16048590  0.30620001  0.78743516    -0.16500
F450        F  0.22109824  0.29991680  0.83913885    -0.14200
C451        C  0.33364203  0.18764812  0.67610432     0.23800
C452        C  0.37493011  0.19679229  0.66098753    -0.24300
C453        C  0.38602950  0.19191008  0.61932963     0.18700
C454        C  0.35477407  0.18337265  0.59260088     0.23800
C455        C  0.31267833  0.17896009  0.60754474    -0.24200
C456        C  0.30245982  0.17846691  0.64927002     0.18700
F457        F  0.26159059  0.17434236  0.66376637    -0.14200
F458        F  0.32302689  0.19089962  0.71649319    -0.16500
F459        F  0.36452483  0.18544676  0.55224214    -0.16500
F460        F  0.42583961  0.20118404  0.60428799    -0.14200
C461        C  0.31619049  0.05636933  0.95229260     0.23800
C462        C  0.35591855  0.05435981  0.93125720    -0.24300
C463        C  0.36918580  0.08648930  0.90547416     0.18700
C464        C  0.34931029  0.12520272  0.90993718     0.23800
C465        C  0.31422345  0.13014830  0.93735603    -0.24200
C466        C  0.29525249  0.09480890  0.95556891     0.18700
F467        F  0.25961546  0.09896990  0.48053141    -0.14200
F468        F  0.30160303  0.02440102  0.47537864    -0.16500
F469        F  0.36867218  0.15937533  0.89352250    -0.16500
F470        F  0.40622450  0.08334764  0.88245812    -0.14200
C471        C  0.08114132  0.38298942  0.54304188     0.23800
C472        C  0.09443670  0.42474539  0.53711919    -0.24300
C473        C  0.13684778  0.43691542  0.53946983     0.18700
C474        C  0.16652910  0.40678491  0.54546092     0.23800
C475        C  0.15398818  0.36405757  0.54825326    -0.24200
C476        C  0.11092104  0.35247802  0.54862312     0.18700
F477        F  0.09811155  0.31131692  0.55080439    -0.14200
F478        F  0.04007775  0.37124107  0.54003303    -0.16500
F479        F  0.20773349  0.41904774  0.54680267    -0.16500
F480        F  0.14958031  0.47781029  0.53480452    -0.14200
C481        C  0.13619123  0.45165862  0.90333560     0.23800
C482        C  0.09369929  0.45058984  0.89314811    -0.24300
C483        C  0.08447129  0.43176981  0.85496336     0.18700
C484        C  0.11712524  0.41979290  0.82609892     0.23800
C485        C  0.15949960  0.42590809  0.83473809    -0.24200
C486        C  0.16864701  0.43956606  0.87435028     0.18700
F487        F  0.20934024  0.44617156  0.88365586    -0.14200
F488        F  0.14705984  0.46846647  0.93986576    -0.16500
F489        F  0.10740961  0.40505101  0.78861704    -0.16500
F490        F  0.04392655  0.92709197  0.84453126    -0.14200
C491        C  0.34932282  0.08046171  0.57216302     0.23800
C492        C  0.39103218  0.07245012  0.58013127    -0.24300
C493        C  0.40163130  0.07232143  0.62067608     0.18700
C494        C  0.36979693  0.07461917  0.65227674     0.23800
C495        C  0.32729118  0.07708940  0.64348970    -0.24200
C496        C  0.31755012  0.08165681  0.60338095     0.18700
F497        F  0.27666151  0.08262333  0.59391006    -0.14200
F498        F  0.33868614  0.08195880  0.53350478    -0.16500
F499        F  0.37975075  0.06788116  0.69049775    -0.16500
F500        F  0.44158492  0.06329434  0.62927362    -0.14200
C501        C  0.45223538  0.36738182  0.58611812     0.23800
C502        C  0.45224598  0.41059815  0.59941662    -0.24300
C503        C  0.45310227  0.42166684  0.64114914     0.18700
C504        C  0.45409725  0.38986772  0.66885357     0.23800
C505        C  0.45522617  0.34685569  0.65492999    -0.24200
C506        C  0.45406970  0.33620308  0.61331819     0.18700
F507        F  0.45441528  0.29513844  0.59838992    -0.14200
F508        F  0.45131707  0.35457464  0.54634796    -0.16500
F509        F  0.45523407  0.40118948  0.70888384    -0.16500
F510        F  0.45318850  0.46299918  0.65512586    -0.14200
C511        C  0.56381586  0.08859329  0.86795393     0.23800
C512        C  0.05831412  0.10185633  0.90900704    -0.24300
C513        C  0.05941379  0.14481759  0.92151306     0.18700
C514        C  0.06121309  0.17479063  0.89266504     0.23800
C515        C  0.06095100  0.16144982  0.85144626    -0.24200
C516        C  0.56564330  0.11858323  0.83896684     0.18700
F517        F  0.56664714  0.10551590  0.79917873    -0.14200
F518        F  0.56332795  0.04671673  0.85597538    -0.16500
F519        F  0.05895050  0.21660158  0.90499186    -0.16500
F520        F  0.05428643  0.15748594  0.96138394    -0.14200
C521        C  0.33140316  0.90621821  0.33990742     0.86700
C522        C  0.30493809  0.88283077  0.37280596    -0.53500
C523        C  0.32730771  0.85835088  0.39660692     0.09700
C524        C  0.37629435  0.85962289  0.38433106     0.20600
C525        C  0.36502743  0.93146912  0.36364897    -0.54200
C526        C  0.38888285  0.90783346  0.38739464     0.09800
C527        C  0.35706286  0.87063374  0.31574956    -0.53800
C528        C  0.38129088  0.84658840  0.33762171     0.10300
H529        H  0.27072130  0.88469775  0.37626731     0.14800
H530        H  0.39510482  0.83998851  0.40292188     0.00600
H531        H  0.36880309  0.96566588  0.36247657     0.15200
H532        H  0.35790042  0.86604821  0.28301077     0.14900
C533        C  0.15007342  0.58513183  0.14414744     0.86700
C534        C  0.12071950  0.61328796  0.17417099    -0.53500
C535        C  0.09386441  0.63988780  0.15674336     0.09700
C536        C  0.09926253  0.63497652  0.10930559     0.20600
C537        C  0.11984930  0.56114610  0.11658153    -0.54200
C538        C  0.09297004  0.58570149  0.09800080     0.09800
C539        C  0.17306900  0.61812392  0.11762353    -0.53800
C540        C  0.14763549  0.64536433  0.09979155     0.10300
H541        H  0.12225044  0.61326741  0.20673749     0.14800
H542        H  0.07808842  0.65563421  0.09415581     0.00600
H543        H  0.11988425  0.52677615  0.11185886     0.15200
H544        H  0.20702578  0.62050327  0.11422916     0.14900
O545        O  0.02592014  0.98240178  0.40452450    -0.79900
O546        O  0.46084785  0.98170525  0.07762278    -0.79900
O547        O  0.07118779  0.97452328  0.49433519    -0.79900
O548        O  0.42406145  0.91895398  0.45106396    -0.79900
O549        O  0.03421088  0.96731348  0.04908349    -0.80000
O550        O  0.43834319  0.96406244  0.40323229    -0.79900
O551        O  0.44658322  0.93024769  0.03277530    -0.79900
O552        O  0.06755185  0.98495343  0.45698442    -0.79900
C553        C  0.06024678  0.97319107  0.41976913     1.09800
C554        C  0.45239598  0.94273908  0.06891919     1.09700
C555        C  0.06521451  0.95577365  0.02633445     1.09800
C556        C  0.42053609  0.92972468  0.41487207     1.09700
O557        O  0.42507771  0.54529660  0.44594906    -0.79900
O558        O  0.02593582  0.55000074  0.08160572    -0.80000
O559        O  0.06264967  0.55148472  0.45711787    -0.79900
O560        O  0.40326530  0.01017191  0.03970824    -0.79900
O561        O  0.45379603  0.05977609  0.03736377    -0.79900
O562        O  0.50158630  0.56737929  0.44113158    -0.79900
O563        O  0.38123928  0.49454415  0.46149624    -0.79900
O564        O  0.07557826  0.55323280  0.03242682    -0.79900
Co565      Co  0.47385350  0.51300417  0.42680619     1.51500
Co566      Co  0.99637368  0.01544181  0.03783982     1.51700
Co567      Co  0.03172768  0.52163030  0.50019082     1.51600
Co568      Co  0.41861344  0.96477932  0.99615350     1.51500
O569        O  0.47865309  0.98930857  0.48153939    -1.41800
C570        C  0.38877990  0.52952519  0.44635352     1.09700
C571        C  0.06296232  0.56366967  0.06929777     1.09800
C572        C  0.04051647  0.57238446  0.43687530     1.09800
C573        C  0.41684592  0.54762478  0.04901496     1.09700
O574        O  0.31246455  0.79205913  0.43073450    -0.79900
O575        O  0.27653255  0.73236467  0.08357064    -0.79900
O576        O  0.30350527  0.79942079  0.00966107    -0.79900
O577        O  0.29016181  0.68028613  0.48780363    -0.78900
O578        O  0.26840864  0.81041724  0.06833183    -0.80000
O579        O  0.30258629  0.70226429  0.42857175    -0.79900
O580        O  0.25914608  0.66794814  0.06189263    -0.79900
O581        O  0.27204816  0.84511594  0.45053029    -0.79900
C582        C  0.30400229  0.83139462  0.42819531     1.09800
C583        C  0.28097977  0.69325143  0.08282120     1.09700
C584        C  0.30147918  0.81532445  0.04517211     1.09800
C585        C  0.30129328  0.67233101  0.45140856     1.09700
O586        O  0.23021919  0.71411582  0.41387145    -0.79900
O587        O  0.17913535  0.79602365  0.05957104    -0.80000
O588        O  0.19413585  0.79961286  0.46095427    -0.79900
O589        O  0.17451863  0.67121126  0.03653257    -0.79900
O590        O  0.18711402  0.71239907  0.08989767    -0.79900
O591        O  0.23427203  0.77916682  0.41041113    -0.79900
O592        O  0.20339308  0.67415270  0.46126163    -0.79900
O593        O  0.22070031  0.83933366  0.52424784    -0.79900
Co594      Co  0.26611940  0.74862445  0.44922106     1.51500
Co595      Co  0.22738108  0.76171353  0.07063729     1.51700
Co596      Co  0.24924439  0.79777829  0.48437119     1.51600
Co597      Co  0.23227413  0.67781832  0.01080407     1.51500
O598        O  0.23440390  0.74348771  0.50979498    -1.41800
C599        C  0.20433613  0.68614577  0.42596087     1.09700
C600        C  0.18615803  0.83158185  0.04442743     1.09800
C601        C  0.20045952  0.79655024  0.42352880     1.09800
C602        C  0.16822272  0.67972022  0.07391789     1.09700
O603        O  0.03665279  0.80466937  0.32663616    -0.79900
O604        O  0.47400185  0.77721426  0.16698567    -0.79900
O605        O  0.08323116  0.78070491  0.22257648    -0.79900
O606        O  0.40227298  0.78906387  0.28770456    -0.79900
O607        O  0.03922880  0.77443427  0.17380249    -0.80000
O608        O  0.45110901  0.81750385  0.32418990    -0.79900
O609        O  0.45000852  0.81562567  0.21954974    -0.79900
O610        O  0.08804441  0.76672728  0.29343293    -0.79900
C611        C  0.07554150  0.79619669  0.31875606     1.09800
C612        C  0.45980749  0.81228306  0.18201039     1.09700
C613        C  0.06991434  0.79285429  0.19035938     1.09800
C614        C  0.41288983  0.81570479  0.31592141     1.09700
O615        O  0.43531708  0.72678712  0.32764932    -0.79900
O616        O  0.03127163  0.68488962  0.17337569    -0.80000
O617        O  0.06396572  0.69057777  0.28794989    -0.79900
O618        O  0.39334522  0.74807121  0.21177718    -0.79900
O619        O  0.44349794  0.70520801  0.18374127    -0.79900
O620        O  0.51970547  0.71727222  0.33679819    -0.79900
O621        O  0.43220564  0.70385751  0.26396018    -0.79900
O622        O  0.08347437  0.69283908  0.21273904    -0.79900
Co623      Co  0.48640638  0.76583815  0.32352696     1.51500
Co624      Co  0.99758818  0.73509527  0.20021544     1.51700
Co625      Co  0.05607043  0.73631392  0.25325672     1.51600
Co626      Co  0.44114870  0.75937992  0.24270575     1.51500
O627        O  0.49715741  0.75741118  0.26106071    -1.41800
C628        C  0.42274639  0.70006057  0.30075338     1.09700
C629        C  0.06796162  0.67410144  0.18203144     1.09800
C630        C  0.04767271  0.69113228  0.32349052     1.09800
C631        C  0.40491125  0.71743317  0.18710650     1.09700
O632        O  0.27632510  0.95891277  0.32473075    -0.79900
O633        O  0.28379250  0.52099977  0.16273087    -0.79900
O634        O  0.30047517  0.92126927  0.19099670    -0.79900
O635        O  0.26818784  0.58512026  0.26787621    -0.79900
O636        O  0.25597986  0.94650834  0.14922706    -0.80000
O637        O  0.30142088  0.53384243  0.29172783    -0.79900
O638        O  0.27491740  0.57870389  0.19989698    -0.79900
O639        O  0.30972224  0.92378440  0.27369469    -0.79900
C640        C  0.30478017  0.93194377  0.31163240     1.09800
C641        C  0.29425021  0.55875734  0.17051934     1.09700
C642        C  0.28983609  0.92685979  0.15552898     1.09800
C643        C  0.29897818  0.57275814  0.28576669     1.09700
O644        O  0.22398272  0.53578208  0.33540563    -0.79900
O645        O  0.17960797  0.96354036  0.20215663    -0.80000
O646        O  0.22008412  0.90932314  0.28817801    -0.79900
O647        O  0.18895865  0.56403602  0.20094788    -0.79900
O648        O  0.19916775  0.52305425  0.14517304    -0.79900
O649        O  0.19270773  0.97176246  0.29018043    -0.79900
O650        O  0.19240617  0.55598069  0.28171180    -0.79900
O651        O  0.21395673  0.90392233  0.20425573    -0.79900
Co652      Co  0.24742805  0.50174818  0.29013293     1.51500
Co653      Co  0.23170763  0.99477686  0.18542477     1.51700
Co654      Co  0.26094315  0.91835361  0.23888250     1.51600
Co655      Co  0.23548820  0.54431646  0.23543671     1.51500
O656        O  0.25963045  0.98248199  0.23465797    -1.41800
C657        C  0.19708901  0.55848016  0.31978667     1.09700
C658        C  0.18134843  0.92364253  0.19680215     1.09800
C659        C  0.19126612  0.93476396  0.30154948     1.09800
C660        C  0.18086508  0.55543469  0.16394800     1.09700
C661        C  0.40408548  0.62446279  0.30296294     0.23800
C662        C  0.39218420  0.66695423  0.30999602    -0.24300
C663        C  0.34944307  0.67767626  0.31269409     0.18700
C664        C  0.31882003  0.64628004  0.30719172     0.23800
C665        C  0.33068542  0.60380130  0.29859928    -0.24200
C666        C  0.37336197  0.59278448  0.29775289     0.18700
F667        F  0.38556618  0.55218457  0.28829561    -0.14200
F668        F  0.44557299  0.61426966  0.29794621    -0.16500
F669        F  0.27778737  0.65786988  0.30769895    -0.16500
F670        F  0.33768243  0.71896729  0.31675205    -0.14200
C671        C  0.07641553  0.87017190  0.19302902     0.23800
C672        C  0.08937725  0.83082199  0.17455735    -0.24300
C673        C  0.12897809  0.82712291  0.15394725     0.18700
C674        C  0.15766309  0.86084919  0.15626101     0.23800
C675        C  0.14697839  0.89808266  0.18013139    -0.24200
C676        C  0.10514058  0.90418932  0.19526751     0.18700
F677        F  0.09395758  0.94032552  0.21738746    -0.14200
F678        F  0.03861860  0.87337413  0.21470189    -0.16500
F679        F  0.19768515  0.85502139  0.13979148    -0.16500
F680        F  0.14209825  0.78878832  0.13753561    -0.14200
C681        C  0.31161886  0.91776681  0.08178895     0.23800
C682        C  0.31554942  0.90627727  0.12155550    -0.24300
C683        C  0.33887868  0.86982467  0.12781187     0.18700
C684        C  0.34779404  0.84035545  0.09558743     0.23800
C685        C  0.33224965  0.84704874  0.05815731    -0.24200
C686        C  0.32211036  0.88851599  0.04962290     0.18700
F687        F  0.31144118  0.89684684  0.01203018    -0.14200
F688        F  0.29323615  0.95475589  0.07440494    -0.16500
F689        F  0.36097834  0.80115410  0.10333178    -0.16500
F690        F  0.34696146  0.85915034  0.16553032    -0.14200
C691        C  0.16123510  0.62235552  0.41057912     0.23800
C692        C  0.17847847  0.66146076  0.39795637    -0.24300
C693        C  0.18304197  0.66828836  0.35657403     0.18700
C694        C  0.18059928  0.63366418  0.32894452     0.23800
C695        C  0.17582597  0.59261767  0.34332531    -0.24200
C696        C  0.16224749  0.58734245  0.38340391     0.18700
F697        F  0.15423938  0.54803898  0.39681900    -0.14200
F698        F  0.15046189  0.61608716  0.45013448    -0.16500
F699        F  0.19106252  0.63945107  0.28922921    -0.16500
F700        F  0.19673981  0.70633858  0.34320380    -0.14200
C701        C  0.12986955  0.82427934  0.41090557     0.23800
C702        C  0.17055591  0.81144733  0.39623116    -0.24300
C703        C  0.18135243  0.80944908  0.35442008     0.18700
C704        C  0.15017304  0.81299581  0.32771559     0.23800
C705        C  0.10780584  0.81700471  0.34261736    -0.24200
C706        C  0.09839739  0.82715738  0.38400234     0.18700
F707        F  0.05803775  0.83402157  0.39898241    -0.14200
F708        F  0.11940431  0.82972469  0.45121897    -0.16500
F709        F  0.16048879  0.80620007  0.28743844    -0.16500
F710        F  0.22110262  0.79991886  0.33914088    -0.14200
C711        C  0.33361414  0.68770096  0.17612398     0.23800
C712        C  0.37491218  0.69679591  0.16100153    -0.24300
C713        C  0.38601419  0.69184998  0.11934713     0.18700
C714        C  0.35475678  0.68329922  0.09262181     0.23800
C715        C  0.31265580  0.67893457  0.10756568    -0.24200
C716        C  0.30243114  0.67850228  0.14929411     0.18700
F717        F  0.26155665  0.67442968  0.16379149    -0.14200
F718        F  0.32299124  0.69101930  0.21651028    -0.16500
F719        F  0.36451619  0.68530979  0.05225819    -0.16500
F720        F  0.42583385  0.70107197  0.10429761    -0.14200
C721        C  0.31616950  0.55635137  0.45225921     0.23800
C722        C  0.35590574  0.55434402  0.43123908    -0.24300
C723        C  0.36918113  0.58647400  0.40545949     0.18700
C724        C  0.34930933  0.62518950  0.40992295     0.23800
C725        C  0.31421337  0.63013359  0.43733096    -0.24200
C726        C  0.29523267  0.59479204  0.45553223     0.18700
F727        F  0.25958095  0.59894446  0.98046432    -0.14200
F728        F  0.30157239  0.52437637  0.97531728    -0.16500
F729        F  0.36868389  0.65936430  0.39352425    -0.16500
F730        F  0.40622573  0.58333224  0.38245254    -0.14200
C731        C  0.08115626  0.88301036  0.04311415     0.23800
C732        C  0.09445732  0.92475065  0.03711917    -0.24300
C733        C  0.13687663  0.93691284  0.03941433     0.18700
C734        C  0.16655858  0.90678615  0.04541310     0.23800
C735        C  0.15401055  0.86406691  0.04826575    -0.24200
C736        C  0.11093672  0.85250061  0.04869962     0.18700
F737        F  0.09811524  0.81135030  0.05095264    -0.14200
F738        F  0.04008172  0.87127046  0.04017281    -0.16500
F739        F  0.20776914  0.91904388  0.04670206    -0.16500
F740        F  0.14961542  0.97779628  0.03469125    -0.14200
C741        C  0.13619543  0.95162881  0.40331765     0.23800
C742        C  0.09370236  0.95056081  0.39313435    -0.24300
C743        C  0.08447005  0.93173944  0.35495118     0.18700
C744        C  0.11712121  0.91976582  0.32608238     0.23800
C745        C  0.15949669  0.92588155  0.33471761    -0.24200
C746        C  0.16864814  0.93953613  0.37432943     0.18700
F747        F  0.20934242  0.94614001  0.38363180    -0.14200
F748        F  0.14706819  0.96843665  0.43984626    -0.16500
F749        F  0.10740151  0.90502393  0.28860156    -0.16500
F750        F  0.04393187  0.42712211  0.34453736    -0.14200
C751        C  0.34928447  0.58043139  0.07213753     0.23800
C752        C  0.39100218  0.57246628  0.08011315    -0.24300
C753        C  0.40160484  0.57238821  0.12066000     0.18700
C754        C  0.36976926  0.57468435  0.15225992     0.23800
C755        C  0.32726015  0.57710312  0.14346892    -0.24200
C756        C  0.31751236  0.58162788  0.10335524     0.18700
F757        F  0.27662173  0.58255304  0.09388270    -0.14200
F758        F  0.33864331  0.58187957  0.03347608    -0.16500
F759        F  0.37973124  0.56799567  0.19048896    -0.16500
F760        F  0.44156813  0.56340940  0.12926533    -0.14200
C761        C  0.45223005  0.86737645  0.08611241     0.23800
C762        C  0.45225566  0.91059403  0.09940646    -0.24300
C763        C  0.45312456  0.92166687  0.14113712     0.18700
C764        C  0.45411861  0.88987079  0.16884412     0.23800
C765        C  0.45523547  0.84685749  0.15492470    -0.24200
C766        C  0.45406528  0.83620022  0.11331501     0.18700
F767        F  0.45439878  0.79513362  0.09839188    -0.14200
F768        F  0.45130030  0.85456584  0.04634395    -0.16500
F769        F  0.45526735  0.90119654  0.20887252    -0.16500
F770        F  0.45322537  0.96300046  0.15510957    -0.14200
C771        C  0.56380167  0.58860932  0.36797537     0.23800
C772        C  0.05829553  0.60187621  0.40902944    -0.24300
C773        C  0.05938868  0.64483826  0.42153287     0.18700
C774        C  0.06119604  0.67480893  0.39268233     0.23800
C775        C  0.06094451  0.66146501  0.35146313    -0.24200
C776        C  0.56563931  0.61859530  0.33898434     0.18700
F777        F  0.56665332  0.60552287  0.29919715    -0.14200
F778        F  0.56331599  0.54673178  0.35600109    -0.16500
F779        F  0.05893131  0.71662053  0.40500634    -0.16500
F780        F  0.05424965  0.65750945  0.46140242    -0.14200
C781        C  0.33140196  0.90622014  0.83990908     0.86700
C782        C  0.30493665  0.88283303  0.87280762    -0.53500
C783        C  0.32730601  0.85835287  0.89660850     0.09700
C784        C  0.37629272  0.85962440  0.88433261     0.20600
C785        C  0.36502652  0.93147073  0.86365038    -0.54200
C786        C  0.38888183  0.90783477  0.88739578     0.09800
C787        C  0.35706137  0.87063530  0.81575119    -0.53800
C788        C  0.38128931  0.84658984  0.83762340     0.10300
H789        H  0.27071989  0.88470033  0.87626897     0.14800
H790        H  0.39510302  0.83998990  0.90292347     0.00600
H791        H  0.36880269  0.96566743  0.86247780     0.15200
H792        H  0.35789898  0.86604981  0.78301243     0.14900
C793        C  0.15007401  0.58513124  0.64414720     0.86700
C794        C  0.12072073  0.61328807  0.67417033    -0.53500
C795        C  0.09386567  0.63988763  0.65674221     0.09700
C796        C  0.09926389  0.63497548  0.60930446     0.20600
C797        C  0.11985001  0.56114513  0.61658172    -0.54200
C798        C  0.09297096  0.58570046  0.59800049     0.09800
C799        C  0.17307096  0.61812243  0.61762249    -0.53800
C800        C  0.14763639  0.64536247  0.59978997     0.10300
H801        H  0.12225151  0.61326805  0.70673648     0.14800
H802        H  0.07808985  0.65563310  0.59415420     0.00600
H803        H  0.11988467  0.52677551  0.61185962     0.15200
H804        H  0.20702102  0.62050107  0.61422867     0.14900
O805        O  0.02591857  0.98240291  0.90452528    -0.79900
O806        O  0.46084847  0.98170520  0.57762288    -0.79900
O807        O  0.07118711  0.97452446  0.99433577    -0.79900
O808        O  0.42406107  0.91895456  0.95106425    -0.79900
O809        O  0.03421168  0.96731392  0.54908330    -0.80000
O810        O  0.43834372  0.96406270  0.90323252    -0.79900
O811        O  0.44658544  0.93024741  0.53277519    -0.79900
O812        O  0.06755051  0.98495469  0.95698505    -0.79900
C813        C  0.06024540  0.97319249  0.91976975     1.09800
C814        C  0.45239696  0.94273891  0.56891934     1.09700
C815        C  0.06521496  0.95577313  0.52633416     1.09800
C816        C  0.42053588  0.92972531  0.91487246     1.09700
O817        O  0.42508101  0.54529709  0.94595014    -0.79900
O818        O  0.02593670  0.55000061  0.58160514    -0.80000
O819        O  0.06264698  0.55148633  0.95711838    -0.79900
O820        O  0.40326546  0.01017108  0.53970904    -0.79900
O821        O  0.45379525  0.05977624  0.53736374    -0.79900
O822        O  0.50158917  0.56737720  0.94113324    -0.79900
O823        O  0.38124036  0.49454602  0.96149475    -0.79900
O824        O  0.07557975  0.55323149  0.53242657    -0.79900
Co825      Co  0.47385532  0.51300309  0.92680683     1.51500
Co826      Co  0.99637477  0.01544259  0.53783924     1.51700
Co827      Co  0.03172619  0.52163102  0.00019146     1.51600
Co828      Co  0.41861383  0.96477852  0.49615392     1.51500
O829        O  0.47865376  0.98930741  0.98153969    -1.41800
C830        C  0.38878276  0.52952725  0.94635291     1.09700
C831        C  0.06296352  0.56366876  0.56929738     1.09800
C832        C  0.04051305  0.57238512  0.93687562     1.09800
C833        C  0.41684578  0.54762438  0.54901576     1.09700
O834        O  0.31246285  0.79206114  0.93073599    -0.79900
O835        O  0.27653041  0.73236492  0.58357253    -0.79900
O836        O  0.30350596  0.79941982  0.50966131    -0.79900
O837        O  0.29015734  0.68028277  0.98780493    -0.78900
O838        O  0.26840655  0.81041620  0.56833074    -0.80000
O839        O  0.30258500  0.70226648  0.92857506    -0.79900
O840        O  0.25915104  0.66794749  0.56189113    -0.79900
O841        O  0.27204595  0.84511766  0.95053146    -0.79900
C842        C  0.30400029  0.83139651  0.92819663     1.09800
C843        C  0.28098083  0.69325208  0.58282205     1.09700
C844        C  0.30147813  0.81532337  0.54517246     1.09800
C845        C  0.30129034  0.67233113  0.95140961     1.09700
O846        O  0.23022026  0.71411665  0.91387273    -0.79900
O847        O  0.17913406  0.79602106  0.55956631    -0.80000
O848        O  0.19413343  0.79961495  0.96095751    -0.79900
O849        O  0.17452411  0.67120460  0.53653076    -0.79900
O850        O  0.18711251  0.71239789  0.58989455    -0.79900
O851        O  0.23426907  0.77916778  0.91041422    -0.79900
O852        O  0.20338757  0.67415693  0.96126298    -0.79900
O853        O  0.22070061  0.83933547  0.02425070    -0.79900
Co854      Co  0.26611818  0.74862645  0.94922354     1.51500
Co855      Co  0.22737949  0.76171220  0.57063521     1.51700
Co856      Co  0.24924266  0.79778009  0.98437282     1.51600
Co857      Co  0.23227921  0.67781617  0.51080274     1.51500
O858        O  0.23440267  0.74348979  0.00979699    -1.41800
C859        C  0.20433451  0.68614861  0.92596149     1.09700
C860        C  0.18615728  0.83157964  0.54442371     1.09800
C861        C  0.20045653  0.79655111  0.92353201     1.09800
C862        C  0.16822465  0.67971674  0.57391531     1.09700
O863        O  0.03665152  0.80466698  0.82663548    -0.79900
O864        O  0.47400019  0.77721493  0.66698771    -0.79900
O865        O  0.08323106  0.78070619  0.72257667    -0.79900
O866        O  0.40227179  0.78906457  0.78770741    -0.79900
O867        O  0.03923207  0.77443172  0.67380001    -0.80000
O868        O  0.45110816  0.81750655  0.82419116    -0.79900
O869        O  0.45000618  0.81562610  0.71955169    -0.79900
O870        O  0.08804419  0.76672567  0.79343321    -0.79900
C871        C  0.07554034  0.79619455  0.81875654     1.09800
C872        C  0.45980521  0.81228353  0.68201230     1.09700
C873        C  0.06991610  0.79285354  0.69035803     1.09800
C874        C  0.41288869  0.81570646  0.81592337     1.09700
O875        O  0.43531763  0.72678963  0.82765330    -0.79900
O876        O  0.03127173  0.68488753  0.67337522    -0.80000
O877        O  0.06396449  0.69057557  0.78794647    -0.79900
O878        O  0.39334380  0.74807077  0.71178097    -0.79900
O879        O  0.44349716  0.70520843  0.68374485    -0.79900
O880        O  0.51970655  0.71727628  0.83680224    -0.79900
O881        O  0.43220534  0.70385851  0.76396455    -0.79900
O882        O  0.08347614  0.69284086  0.71273632    -0.79900
Co883      Co  0.48640658  0.76584138  0.82352927     1.51500
Co884      Co  0.99758931  0.73509452  0.70021331     1.51700
Co885      Co  0.05607091  0.73631386  0.75325526     1.51600
Co886      Co  0.44114743  0.75938051  0.74270882     1.51500
O887        O  0.49715647  0.75741299  0.76106297    -1.41800
C888        C  0.42274657  0.70006237  0.80075801     1.09700
C889        C  0.06796272  0.67410131  0.68202993     1.09800
C890        C  0.04767112  0.69112932  0.82348693     1.09800
C891        C  0.40491036  0.71743308  0.68711015     1.09700
O892        O  0.27632396  0.95891485  0.82473251    -0.79900
O893        O  0.28379273  0.52100099  0.66273247    -0.79900
O894        O  0.30047594  0.92127080  0.69099856    -0.79900
O895        O  0.26818787  0.58512261  0.76787769    -0.79900
O896        O  0.25598061  0.94650927  0.64922867    -0.80000
O897        O  0.30141995  0.53384481  0.79173027    -0.79900
O898        O  0.27491834  0.57870531  0.69989855    -0.79900
O899        O  0.30972208  0.92378723  0.77369656    -0.79900
C900        C  0.30477934  0.93194610  0.81163423     1.09800
C901        C  0.29425106  0.55875837  0.67052116     1.09700
C902        C  0.28983673  0.92686068  0.65553075     1.09800
C903        C  0.29897768  0.57276056  0.78576901     1.09700
O904        O  0.22398057  0.53578476  0.83540641    -0.79900
O905        O  0.17960818  0.96354045  0.70215732    -0.80000
O906        O  0.22008381  0.90932532  0.78817937    -0.79900
O907        O  0.18895967  0.56403706  0.70094783    -0.79900
O908        O  0.19916834  0.52305403  0.64517362    -0.79900
O909        O  0.19270706  0.97176449  0.79018104    -0.79900
O910        O  0.19240538  0.55598297  0.78171169    -0.79900
O911        O  0.21395768  0.90392305  0.70425703    -0.79900
Co912      Co  0.24742705  0.50175038  0.79013427     1.51500
Co913      Co  0.23170777  0.99477764  0.68542606     1.51700
Co914      Co  0.26094348  0.91835543  0.73888418     1.51600
Co915      Co  0.23548859  0.54431837  0.73543778     1.51500
O916        O  0.25963043  0.98248375  0.73465954    -1.41800
C917        C  0.19708741  0.55848290  0.81978666     1.09700
C918        C  0.18134929  0.92364263  0.69680272     1.09800
C919        C  0.19126542  0.93476602  0.80155020     1.09800
C920        C  0.18086590  0.55543477  0.66394813     1.09700
C921        C  0.40408492  0.62446466  0.80296900     0.23800
C922        C  0.39218403  0.66695630  0.81000145    -0.24300
C923        C  0.34944298  0.67767859  0.81269824     0.18700
C924        C  0.31881983  0.64628268  0.80719440     0.23800
C925        C  0.33068486  0.60380373  0.79860254    -0.24200
C926        C  0.37336123  0.59278655  0.79775815     0.18700
F927        F  0.38556530  0.55218645  0.78830177    -0.14200
F928        F  0.44557237  0.61427109  0.79795356    -0.16500
F929        F  0.27778755  0.65787312  0.80769939    -0.16500
F930        F  0.33768270  0.71896975  0.81675550    -0.14200
C931        C  0.07641685  0.87017113  0.69302590     0.23800
C932        C  0.08937937  0.83082092  0.67455546    -0.24300
C933        C  0.12898116  0.82712170  0.65394710     0.18700
C934        C  0.15766591  0.86084820  0.65626154     0.23800
C935        C  0.14698012  0.89808203  0.68013100    -0.24200
C936        C  0.10514169  0.90418868  0.69526518     0.18700
F937        F  0.09395756  0.94032518  0.71738408    -0.14200
F938        F  0.03861906  0.87337361  0.71469718    -0.16500
F939        F  0.19768856  0.85502033  0.63979353    -0.16500
F940        F  0.14210228  0.78878693  0.63753671    -0.14200
C941        C  0.31161876  0.91776642  0.58179073     0.23800
C942        C  0.31554940  0.90627718  0.62155736    -0.24300
C943        C  0.33887725  0.86982377  0.62781396     0.18700
C944        C  0.34779119  0.84035383  0.59558980     0.23800
C945        C  0.33224772  0.84704766  0.55815937    -0.24200
C946        C  0.32210904  0.88851504  0.54962485     0.18700
F947        F  0.31143937  0.89684580  0.51203225    -0.14200
F948        F  0.29323678  0.95475584  0.57440655    -0.16500
F949        F  0.36097374  0.80115197  0.60333460    -0.16500
F950        F  0.34695973  0.85914952  0.66553251    -0.14200
C951        C  0.16123224  0.62235958  0.91057776     0.23800
C952        C  0.17847792  0.66146415  0.89795563    -0.24300
C953        C  0.18304389  0.66829159  0.85657330     0.18700
C954        C  0.18060059  0.63366759  0.82894366     0.23800
C955        C  0.17582450  0.59262124  0.84332433    -0.24200
C956        C  0.16224360  0.58734659  0.88340241     0.18700
F957        F  0.15423246  0.54804343  0.89681712    -0.14200
F958        F  0.15045717  0.61609149  0.95013282    -0.16500
F959        F  0.19106589  0.63945405  0.78922862    -0.16500
F960        F  0.19674445  0.70634115  0.84320351    -0.14200
C961        C  0.12986499  0.82427590  0.91090833     0.23800
C962        C  0.17055246  0.81144709  0.89623432    -0.24300
C963        C  0.18134992  0.80945072  0.85442342     0.18700
C964        C  0.15017087  0.81299619  0.82771836     0.23800
C965        C  0.10780329  0.81700263  0.84261935    -0.24200
C966        C  0.09839333  0.82715327  0.88400448     0.18700
F967        F  0.05803295  0.83401433  0.89898393    -0.14200
F968        F  0.11939835  0.82971838  0.95122171    -0.16500
F969        F  0.16048770  0.80620198  0.78744125    -0.16500
F970        F  0.22110107  0.79992365  0.83914481    -0.14200
C971        C  0.33361384  0.68770083  0.67612602     0.23800
C972        C  0.37491202  0.69679622  0.66100441    -0.24300
C973        C  0.38601477  0.69185201  0.61935005     0.18700
C974        C  0.35475791  0.68330227  0.59262404     0.23800
C975        C  0.31265685  0.67893685  0.60756723    -0.24200
C976        C  0.30243136  0.67850326  0.64929543     0.18700
F977        F  0.26155668  0.67442989  0.66379201    -0.14200
F978        F  0.32299032  0.69101774  0.71651224    -0.16500
F979        F  0.36451794  0.68531444  0.55226067    -0.16500
F980        F  0.42583456  0.70107485  0.60430142    -0.14200
C981        C  0.31617157  0.55635208  0.95225347     0.23800
C982        C  0.35591040  0.55434818  0.93123800    -0.24300
C983        C  0.36918806  0.58648132  0.90546266     0.18700
C984        C  0.34931391  0.62519555  0.90992622     0.23800
C985        C  0.31421416  0.63013558  0.93733013    -0.24200
C986        C  0.29523278  0.59479161  0.95552658     0.18700
F987        F  0.25958419  0.59894843  0.48047412    -0.14200
F988        F  0.30157225  0.52437839  0.47532737    -0.16500
F989        F  0.36868871  0.65937274  0.89353195    -0.16500
F990        F  0.40623547  0.58334330  0.88245975    -0.14200
C991        C  0.08115609  0.88300865  0.54310998     0.23800
C992        C  0.09445717  0.92474963  0.53711881    -0.24300
C993        C  0.13687635  0.93691161  0.53941581     0.18700
C994        C  0.16655811  0.90678422  0.54541308     0.23800
C995        C  0.15400995  0.86406467  0.54826259    -0.24200
C996        C  0.11093625  0.85249835  0.54869435     0.18700
F997        F  0.09811481  0.81134767  0.55094388    -0.14200
F998        F  0.04008199  0.87126880  0.54016552    -0.16500
F999        F  0.20776863  0.91904162  0.54670365    -0.16500
F1000       F  0.14961525  0.97779547  0.53469541    -0.14200
C1001       C  0.13619422  0.95163112  0.90331805     0.23800
C1002       C  0.09370116  0.95056275  0.89313476    -0.24300
C1003       C  0.08446897  0.93174145  0.85495151     0.18700
C1004       C  0.11712023  0.91976800  0.82608272     0.23800
C1005       C  0.15949570  0.92588370  0.83471813    -0.24200
C1006       C  0.16864699  0.93953836  0.87432997     0.18700
F1007       F  0.20934121  0.94614242  0.88363244    -0.14200
F1008       F  0.14706693  0.96843947  0.93984649    -0.16500
F1009       F  0.10740064  0.90502689  0.78860162    -0.16500
F1010       F  0.04393058  0.42712517  0.84453704    -0.14200
C1011       C  0.34928588  0.58043323  0.57214005     0.23800
C1012       C  0.39100302  0.57246523  0.58011509    -0.24300
C1013       C  0.40160590  0.57238475  0.62066172     0.18700
C1014       C  0.36977068  0.57468169  0.65226188     0.23800
C1015       C  0.32726172  0.57710351  0.64347128    -0.24200
C1016       C  0.31751401  0.58163025  0.60335793     0.18700
F1017       F  0.27662345  0.58255767  0.59388571    -0.14200
F1018       F  0.33864481  0.58188415  0.53347887    -0.16500
F1019       F  0.37973243  0.56799075  0.69049052    -0.16500
F1020       F  0.44156870  0.56340319  0.62926640    -0.14200
C1021       C  0.45222713  0.86737623  0.58611379     0.23800
C1022       C  0.45225510  0.91059402  0.59940714    -0.24300
C1023       C  0.45312478  0.92166723  0.64113773     0.18700
C1024       C  0.45411787  0.88987138  0.66884519     0.23800
C1025       C  0.45523278  0.84685785  0.65492638    -0.24200
C1026       C  0.45406110  0.83620018  0.61331689     0.18700
F1027       F  0.45439217  0.79513334  0.59839450    -0.14200
F1028       F  0.45129640  0.85456519  0.54634553    -0.16500
F1029       F  0.45526789  0.90119756  0.70887339    -0.16500
F1030       F  0.45322766  0.96300095  0.65510966    -0.14200
C1031       C  0.56380087  0.58860741  0.86797614     0.23800
C1032       C  0.05829140  0.60187470  0.90902719    -0.24300
C1033       C  0.05939001  0.64483700  0.92152916     0.18700
C1034       C  0.06119865  0.67480664  0.89267759     0.23800
C1035       C  0.06094263  0.66146155  0.85145902    -0.24200
C1036       C  0.56563506  0.61859371  0.83898552     0.18700
F1037       F  0.56664598  0.60552141  0.79919842    -0.14200
F1038       F  0.56331469  0.54672997  0.85600144    -0.16500
F1039       F  0.05893955  0.71661890  0.90500019    -0.16500
F1040       F  0.05425597  0.65750991  0.96139859    -0.14200
C1041       C  0.83140990  0.40622417  0.33991177     0.86700
C1042       C  0.80494228  0.38283967  0.37280976    -0.53500
C1043       C  0.82730880  0.35835759  0.39661063     0.09700
C1044       C  0.87629605  0.35962489  0.38433556     0.20600
C1045       C  0.86503544  0.43147224  0.36365283    -0.54200
C1046       C  0.88888828  0.40783522  0.38739904     0.09800
C1047       C  0.85706679  0.37063696  0.31575359    -0.53800
C1048       C  0.88129231  0.34658849  0.33762588     0.10300
H1049       H  0.77072565  0.38471036  0.37627081     0.14800
H1050       H  0.89510403  0.33998916  0.40292737     0.00600
H1051       H  0.86881245  0.46566894  0.36248111     0.15200
H1052       H  0.85790374  0.36605168  0.28301486     0.14900
C1053       C  0.65008104  0.08513080  0.14413503     0.86700
C1054       C  0.62072373  0.11328381  0.17415910    -0.53500
C1055       C  0.59386822  0.13988430  0.15673221     0.09700
C1056       C  0.59926886  0.13497521  0.10929429     0.20600
C1057       C  0.61986079  0.06114521  0.11656575    -0.54200
C1058       C  0.59298112  0.08570000  0.09798515     0.09800
C1059       C  0.67307625  0.11812638  0.11761464    -0.53800
C1060       C  0.64764109  0.14536680  0.09978383     0.10300
H1061       H  0.62225368  0.11326182  0.20672545     0.14800
H1062       H  0.57809438  0.15563258  0.09414443     0.00600
H1063       H  0.61989849  0.02677561  0.11184058     0.15200
H1064       H  0.70702948  0.12050737  0.11422165     0.14900
O1065       O  0.52591304  0.48242432  0.40453736    -0.79900
O1066       O  0.96082964  0.48171136  0.07763629    -0.79900
O1067       O  0.57117615  0.47453688  0.49434767    -0.79900
O1068       O  0.92405800  0.41895738  0.45107283    -0.79900
O1069       O  0.53419568  0.46731246  0.04909270    -0.80000
O1070       O  0.93834251  0.46406787  0.40324286    -0.79900
O1071       O  0.94657180  0.43025411  0.03278667    -0.79900
O1072       O  0.56754204  0.48497391  0.45699880    -0.79900
C1073       C  0.56024016  0.47321545  0.41978219     1.09800
C1074       C  0.95238115  0.44274475  0.06893148     1.09700
C1075       C  0.56519937  0.45577506  0.02634243     1.09800
C1076       C  0.92053743  0.42972766  0.41488006     1.09700
O1077       O  0.92509750  0.04529454  0.44593215    -0.79900
O1078       O  0.52594752  0.05000115  0.08158907    -0.80000
O1079       O  0.56266513  0.05146905  0.45709876    -0.79900
O1080       O  0.90325130  0.51017748  0.03971084    -0.79900
O1081       O  0.95378469  0.55978120  0.03737743    -0.79900
O1082       O  0.00160946  0.06736340  0.44110994    -0.79900
O1083       O  0.88125318  0.99454975  0.46149358    -0.79900
O1084       O  0.57559359  0.05322250  0.03241184    -0.79900
Co1085     Co  0.97386667  0.01299213  0.42679147     1.51500
Co1086     Co  0.49636151  0.51544470  0.03785373     1.51700
Co1087     Co  0.53173976  0.02162246  0.50017507     1.51600
Co1088     Co  0.91860258  0.46478190  0.99616094     1.51500
O1089       O  0.97864292  0.48931531  0.48155106    -1.41800
C1090       C  0.88879580  0.02953104  0.44635169     1.09700
C1091       C  0.56297528  0.06366621  0.06928131     1.09800
C1092       C  0.54053385  0.07236696  0.43685278     1.09800
C1093       C  0.91686022  0.04761582  0.04901462     1.09700
O1094       O  0.81246137  0.29206842  0.43073942    -0.79900
O1095       O  0.77653520  0.23238542  0.08356741    -0.79900
O1096       O  0.80349928  0.29943600  0.00966343    -0.79900
O1097       O  0.79016167  0.18030395  0.48782077    -0.78900
O1098       O  0.76839588  0.31043650  0.06832947    -0.80000
O1099       O  0.80259071  0.20227561  0.42858677    -0.79900
O1100       O  0.75914574  0.16796693  0.06190144    -0.79900
O1101       O  0.77204200  0.34512576  0.45052800    -0.79900
C1102       C  0.80399896  0.33140332  0.42819736     1.09800
C1103       C  0.78098699  0.19327298  0.08281833     1.09700
C1104       C  0.80146745  0.31534610  0.04517189     1.09800
C1105       C  0.80129896  0.17234590  0.45142771     1.09700
O1106       O  0.73022771  0.21411454  0.41387071    -0.79900
O1107       O  0.67912680  0.29602421  0.05956449    -0.80000
O1108       O  0.69413088  0.29961955  0.46095149    -0.79900
O1109       O  0.67452499  0.17121639  0.03652761    -0.79900
O1110       O  0.68711614  0.21240430  0.08989393    -0.79900
O1111       O  0.73426858  0.27916905  0.41041068    -0.79900
O1112       O  0.70339969  0.17415751  0.46126425    -0.79900
O1113       O  0.72068491  0.33934608  0.52424496    -0.79900
Co1114     Co  0.76611665  0.24863357  0.44922457     1.51500
Co1115     Co  0.72737725  0.26172456  0.07063439     1.51700
Co1116     Co  0.74923730  0.29779111  0.48437141     1.51600
Co1117     Co  0.73228273  0.17782873  0.01080823     1.51500
O1118       O  0.73439749  0.24350262  0.50979675    -1.41800
C1119       C  0.70434767  0.18614187  0.42596054     1.09700
C1120       C  0.68614340  0.33158178  0.04441818     1.09800
C1121       C  0.70045492  0.29655149  0.42352632     1.09800
C1122       C  0.66822673  0.17972478  0.07391263     1.09700
O1123       O  0.53664910  0.30465113  0.32664014    -0.79900
O1124       O  0.97399297  0.27721039  0.16698686    -0.79900
O1125       O  0.58323263  0.28070473  0.22257019    -0.79900
O1126       O  0.90226960  0.28905759  0.28770979    -0.79900
O1127       O  0.53922452  0.27444345  0.17380145    -0.80000
O1128       O  0.95110769  0.31749444  0.32419523    -0.79900
O1129       O  0.94999894  0.31561700  0.21955323    -0.79900
O1130       O  0.58804537  0.26672851  0.29342138    -0.79900
C1131       C  0.57553899  0.29618965  0.31875174     1.09800
C1132       C  0.95979653  0.31227752  0.18201352     1.09700
C1133       C  0.56991125  0.29286131  0.19035796     1.09800
C1134       C  0.91288841  0.31569929  0.31592607     1.09700
O1135       O  0.93531243  0.22677808  0.32765179    -0.79900
O1136       O  0.53127812  0.18489241  0.17336232    -0.80000
O1137       O  0.56398409  0.19058329  0.28794473    -0.79900
O1138       O  0.89334314  0.24805457  0.21177998    -0.79900
O1139       O  0.94350466  0.20520020  0.18374359    -0.79900
O1140       O  0.01970317  0.21725767  0.33679497    -0.79900
O1141       O  0.93220493  0.20384634  0.26396392    -0.79900
O1142       O  0.58347494  0.19283177  0.21273263    -0.79900
Co1143     Co  0.98640434  0.26582687  0.32352859     1.51500
Co1144     Co  0.49759160  0.23509319  0.20020979     1.51700
Co1145     Co  0.55607255  0.23631117  0.25324798     1.51600
Co1146     Co  0.94114444  0.25937005  0.24270977     1.51500
O1147       O  0.99715517  0.25740489  0.26106136    -1.41800
C1148       C  0.92273952  0.20005244  0.30075627     1.09700
C1149       C  0.56796524  0.17409868  0.18202121     1.09800
C1150       C  0.54767938  0.19112275  0.32348030     1.09800
C1151       C  0.90491706  0.21742096  0.18710691     1.09700
O1152       O  0.77633709  0.45892589  0.32474063    -0.79900
O1153       O  0.78380423  0.02099245  0.16272964    -0.79900
O1154       O  0.80046733  0.42126887  0.19100686    -0.79900
O1155       O  0.76816841  0.08511612  0.26787824    -0.79900
O1156       O  0.75596732  0.44651300  0.14924449    -0.80000
O1157       O  0.80140245  0.03384080  0.29173208    -0.79900
O1158       O  0.77492588  0.07869290  0.19990104    -0.79900
O1159       O  0.80972569  0.42379282  0.27370236    -0.79900
C1160       C  0.80478806  0.43195328  0.31163983     1.09800
C1161       C  0.79426584  0.05874681  0.17052675     1.09700
C1162       C  0.78982626  0.42686698  0.15554116     1.09800
C1163       C  0.79895721  0.07275709  0.28577245     1.09700
O1164       O  0.72396202  0.03576080  0.33540102    -0.79900
O1165       O  0.67960310  0.46354878  0.20218293    -0.80000
O1166       O  0.72008640  0.40934090  0.28819936    -0.79900
O1167       O  0.68895841  0.06402926  0.20093773    -0.79900
O1168       O  0.69918137  0.02305589  0.14515889    -0.79900
O1169       O  0.69271755  0.47178386  0.29020066    -0.79900
O1170       O  0.69239435  0.05596880  0.28170596    -0.79900
O1171       O  0.71394953  0.40392960  0.20427856    -0.79900
Co1172     Co  0.74741440  0.00173725  0.29012620     1.51500
Co1173     Co  0.73170116  0.49478332  0.18544070     1.51700
Co1174     Co  0.76094112  0.41836195  0.23889807     1.51600
Co1175     Co  0.73548177  0.04430850  0.23543164     1.51500
O1176       O  0.75963380  0.48249044  0.23466798    -1.41800
C1177       C  0.69707258  0.05846341  0.31978212     1.09700
C1178       C  0.68134156  0.42365109  0.19682690     1.09800
C1179       C  0.69127245  0.43478618  0.30157169     1.09800
C1180       C  0.68087288  0.05543285  0.16393527     1.09700
C1181       C  0.90406248  0.12445872  0.30299140     0.23800
C1182       C  0.89216672  0.16695422  0.30999741    -0.24300
C1183       C  0.84942768  0.17768267  0.31267012     0.18700
C1184       C  0.81880214  0.14628841  0.30716914     0.23800
C1185       C  0.83066264  0.10380374  0.29860537    -0.24200
C1186       C  0.87333623  0.09278194  0.29778541     0.18700
F1187       F  0.88553709  0.05217551  0.28836006    -0.14200
F1188       F  0.94554893  0.11425725  0.29800152    -0.16500
F1189       F  0.77777379  0.15788555  0.30764702    -0.16500
F1190       F  0.83767352  0.21897639  0.31669862    -0.14200
C1191       C  0.57640797  0.37018038  0.19303967     0.23800
C1192       C  0.58937116  0.33083355  0.17456147    -0.24300
C1193       C  0.62897258  0.32713950  0.15395163     0.18700
C1194       C  0.65765762  0.36086504  0.15627455     0.23800
C1195       C  0.64697181  0.39809358  0.18015208    -0.24200
C1196       C  0.60513299  0.40419764  0.19528650     0.18700
F1197       F  0.59394796  0.44033085  0.21741034    -0.14200
F1198       F  0.53860869  0.37337901  0.21470907    -0.16500
F1199       F  0.69768037  0.35504028  0.13980567    -0.16500
F1200       F  0.64209356  0.28880839  0.13753198    -0.14200
C1201       C  0.81159356  0.41778997  0.08179835     0.23800
C1202       C  0.81554013  0.40629727  0.12156139    -0.24300
C1203       C  0.83888187  0.36985014  0.12780699     0.18700
C1204       C  0.84779125  0.34038462  0.09557810     0.23800
C1205       C  0.83223166  0.34707787  0.05815457    -0.24200
C1206       C  0.82207826  0.38854338  0.04962742     0.18700
F1207       F  0.81138919  0.39687413  0.01204099    -0.14200
F1208       F  0.79319870  0.45477572  0.07442381    -0.16500
F1209       F  0.86098909  0.30118581  0.10331397    -0.16500
F1210       F  0.84698311  0.35917643  0.16552081    -0.14200
C1211       C  0.66125700  0.12234019  0.41058353     0.23800
C1212       C  0.67849846  0.16144503  0.39795660    -0.24300
C1213       C  0.68305260  0.16827207  0.35657393     0.18700
C1214       C  0.68059179  0.13364958  0.32894441     0.23800
C1215       C  0.67581463  0.09260277  0.34332409    -0.24200
C1216       C  0.66225101  0.08732869  0.38340668     0.18700
F1217       F  0.65424083  0.04802588  0.39682292    -0.14200
F1218       F  0.65049623  0.11607034  0.45014090    -0.16500
F1219       F  0.69104076  0.13943657  0.28922673    -0.16500
F1220       F  0.69675115  0.20632085  0.34320082    -0.14200
C1221       C  0.62986341  0.32427414  0.41090105     0.23800
C1222       C  0.67055063  0.31144413  0.39622744    -0.24300
C1223       C  0.68134827  0.30944645  0.35441673     0.18700
C1224       C  0.65016977  0.31299433  0.32771151     0.23800
C1225       C  0.60780197  0.31700127  0.34261240    -0.24200
C1226       C  0.59839234  0.32715326  0.38399728     0.18700
F1227       F  0.55803234  0.33401629  0.39897698    -0.14200
F1228       F  0.61939589  0.32971569  0.45121413    -0.16500
F1229       F  0.66048710  0.30620007  0.28743451    -0.16500
F1230       F  0.72109879  0.29991622  0.33913853    -0.14200
C1231       C  0.83364135  0.18764785  0.17610537     0.23800
C1232       C  0.87492984  0.19679029  0.16098857    -0.24300
C1233       C  0.88602942  0.19190629  0.11933078     0.18700
C1234       C  0.85477392  0.18336927  0.09260199     0.23800
C1235       C  0.81267794  0.17895865  0.10754573    -0.24200
C1236       C  0.80245909  0.17846686  0.14927105     0.18700
F1237       F  0.76158965  0.17434400  0.16376729    -0.14200
F1238       F  0.82302590  0.19090098  0.21649414    -0.16500
F1239       F  0.86452513  0.18544159  0.05224316    -0.16500
F1240       F  0.92584001  0.20117816  0.10428905    -0.14200
C1241       C  0.81619051  0.05636936  0.45229273     0.23800
C1242       C  0.85591864  0.05436031  0.43125738    -0.24300
C1243       C  0.86918558  0.08649001  0.40547445     0.18700
C1244       C  0.84930946  0.12520310  0.40993728     0.23800
C1245       C  0.81422248  0.13014822  0.43735602    -0.24200
C1246       C  0.79525193  0.09480859  0.45556883     0.18700
F1247       F  0.75961580  0.09897006  0.98053141    -0.14200
F1248       F  0.80160243  0.02440061  0.97537793    -0.16500
F1249       F  0.86867084  0.15937592  0.39352250    -0.16500
F1250       F  0.90622442  0.08334890  0.38245856    -0.14200
C1251       C  0.58114134  0.38298875  0.04304396     0.23800
C1252       C  0.59443658  0.42474458  0.03712032    -0.24300
C1253       C  0.63684773  0.43691468  0.03947029     0.18700
C1254       C  0.66652925  0.40678429  0.04546126     0.23800
C1255       C  0.65398848  0.36405696  0.04825413    -0.24200
C1256       C  0.61092126  0.35247745  0.04862501     0.18700
F1257       F  0.59811180  0.31131643  0.05080719    -0.14200
F1258       F  0.54007762  0.37124035  0.04003622    -0.16500
F1259       F  0.70773367  0.41904723  0.04680231    -0.16500
F1260       F  0.64958013  0.47780948  0.03480444    -0.14200
C1261       C  0.63619148  0.45165917  0.40333577     0.23800
C1262       C  0.59369962  0.45059041  0.39314802    -0.24300
C1263       C  0.58447175  0.43176983  0.35496346     0.18700
C1264       C  0.61712580  0.41979239  0.32609937     0.23800
C1265       C  0.65950009  0.42590774  0.33473866    -0.24200
C1266       C  0.66864736  0.43956617  0.37435075     0.18700
F1267       F  0.70934056  0.44617169  0.38365645    -0.14200
F1268       F  0.64705996  0.46846739  0.43986585    -0.16500
F1269       F  0.60741038  0.40504956  0.28861771    -0.16500
F1270       F  0.54392716  0.92709171  0.34453129    -0.14200
C1271       C  0.84932187  0.08046011  0.07216270     0.23800
C1272       C  0.89103143  0.07244950  0.08013102    -0.24300
C1273       C  0.90163071  0.07232181  0.12067583     0.18700
C1274       C  0.86979639  0.07461958  0.15227654     0.23800
C1275       C  0.82729055  0.07708887  0.14348951    -0.24200
C1276       C  0.81754925  0.08165534  0.10338070     0.18700
F1277       F  0.77666057  0.08262098  0.09390985    -0.14200
F1278       F  0.83868500  0.08195616  0.03350444    -0.16500
F1279       F  0.87975044  0.06788251  0.19049768    -0.16500
F1280       F  0.94158453  0.06329559  0.12927344    -0.14200
C1281       C  0.95223368  0.36738094  0.08611818     0.23800
C1282       C  0.95224466  0.41059727  0.09941670    -0.24300
C1283       C  0.95310109  0.42166592  0.14114921     0.18700
C1284       C  0.95409602  0.38986677  0.16885360     0.23800
C1285       C  0.95522465  0.34685474  0.15493000    -0.24200
C1286       C  0.95406786  0.33620215  0.11331822     0.18700
F1287       F  0.95441304  0.29513750  0.09838998    -0.14200
F1288       F  0.95131518  0.35457382  0.04634802    -0.16500
F1289       F  0.95523318  0.40118849  0.20888385    -0.16500
F1290       F  0.95318763  0.46299825  0.15512595    -0.14200
C1291       C  0.06382022  0.08859564  0.36795451     0.23800
C1292       C  0.55831498  0.10185847  0.40900779    -0.24300
C1293       C  0.55941174  0.14481964  0.42151442     0.18700
C1294       C  0.56121227  0.17479300  0.39266673     0.23800
C1295       C  0.56095430  0.16145255  0.35144760    -0.24200
C1296       C  0.06564899  0.11858589  0.33896765     0.18700
F1297       F  0.06665683  0.10551902  0.29917929    -0.14200
F1298       F  0.06333498  0.04671913  0.35597559    -0.16500
F1299       F  0.55894634  0.21660370  0.40499385    -0.16500
F1300       F  0.55428010  0.15748739  0.46138519    -0.14200
C1301       C  0.83141002  0.40622335  0.83991027     0.86700
C1302       C  0.80494269  0.38283817  0.87280818    -0.53500
C1303       C  0.82730961  0.35835614  0.89660891     0.09700
C1304       C  0.87629673  0.35962406  0.88433376     0.20600
C1305       C  0.86503536  0.43147150  0.86365174    -0.54200
C1306       C  0.88888836  0.40783449  0.88739796     0.09800
C1307       C  0.85706724  0.37063664  0.81575188    -0.53800
C1308       C  0.88129293  0.34658815  0.83762393     0.10300
H1309       H  0.77072605  0.38470846  0.87626934     0.14800
H1310       H  0.89510495  0.33998828  0.90292531     0.00600
H1311       H  0.86881196  0.46566829  0.86248043     0.15200
H1312       H  0.85790411  0.36605153  0.78301314     0.14900
C1313       C  0.65008003  0.08513290  0.64413451     0.86700
C1314       C  0.62072254  0.11328456  0.67415945    -0.53500
C1315       C  0.59386662  0.13988550  0.65673339     0.09700
C1316       C  0.59926730  0.13497791  0.60929547     0.20600
C1317       C  0.61986047  0.06114782  0.61656447    -0.54200
C1318       C  0.59298015  0.08570283  0.59798478     0.09800
C1319       C  0.67307585  0.11813005  0.61761523    -0.53800
C1320       C  0.64763888  0.14537097  0.59978551     0.10300
H1321       H  0.62225254  0.11326164  0.70672534     0.14800
H1322       H  0.57809227  0.15563560  0.59414631     0.00600
H1323       H  0.61989858  0.02677868  0.61183839     0.15200
H1324       H  0.70702264  0.12051116  0.61422299     0.14900
O1325       O  0.52591406  0.48242194  0.90453793    -0.79900
O1326       O  0.96082979  0.48171267  0.57763566    -0.79900
O1327       O  0.57117607  0.47453312  0.99434834    -0.79900
O1328       O  0.92405776  0.41895633  0.95107248    -0.79900
O1329       O  0.53419605  0.46731461  0.54909183    -0.80000
O1330       O  0.93834142  0.46406767  0.90324299    -0.79900
O1331       O  0.94657043  0.43025548  0.53278649    -0.79900
O1332       O  0.56754296  0.48497036  0.95699936    -0.79900
C1333       C  0.56024104  0.47321240  0.91978263     1.09800
C1334       C  0.95238115  0.44274612  0.56893096     1.09700
C1335       C  0.56519990  0.45577821  0.52634147     1.09800
C1336       C  0.92053694  0.42972706  0.91487975     1.09700
O1337       O  0.92509355  0.04529306  0.94593204    -0.79900
O1338       O  0.52594699  0.05000240  0.58158897    -0.80000
O1339       O  0.56266801  0.05146602  0.95709938    -0.79900
O1340       O  0.90325190  0.51017953  0.53970956    -0.79900
O1341       O  0.95378616  0.55978228  0.53737666    -0.79900
O1342       O  0.00160604  0.06736366  0.94111155    -0.79900
O1343       O  0.88125125  0.99454683  0.96149509    -0.79900
O1344       O  0.57559185  0.05322646  0.53241109    -0.79900
Co1345     Co  0.97386430  0.01299215  0.92679206     1.51500
Co1346     Co  0.49636128  0.51544611  0.53785336     1.51700
Co1347     Co  0.53174128  0.02161973  0.00017529     1.51600
Co1348     Co  0.91860292  0.46478364  0.49616017     1.51500
O1349       O  0.97864168  0.48931528  0.98155155    -1.41800
C1350       C  0.88879234  0.02952792  0.94635242     1.09700
C1351       C  0.56297411  0.06366903  0.56928093     1.09800
C1352       C  0.54053685  0.07236453  0.93685382     1.09800
C1353       C  0.91686127  0.04761782  0.54901360     1.09700
O1354       O  0.81246338  0.29206658  0.93073749    -0.79900
O1355       O  0.77653638  0.23238748  0.58356501    -0.79900
O1356       O  0.80349768  0.29943763  0.50966346    -0.79900
O1357       O  0.79016806  0.18030741  0.98781893    -0.78900
O1358       O  0.76839684  0.31043973  0.56833042    -0.80000
O1359       O  0.80259456  0.20227347  0.92858311    -0.79900
O1360       O  0.75913863  0.16796981  0.56190380    -0.79900
O1361       O  0.77204385  0.34512344  0.95052704    -0.79900
C1362       C  0.80400056  0.33140144  0.92819584     1.09800
C1363       C  0.78098478  0.19327468  0.58281726     1.09700
C1364       C  0.80146747  0.31534881  0.54517144     1.09800
C1365       C  0.80130413  0.17234575  0.95142624     1.09700
O1366       O  0.73022891  0.21411231  0.91386884    -0.79900
O1367       O  0.67912708  0.29602888  0.55956934    -0.80000
O1368       O  0.69413371  0.29961562  0.96094917    -0.79900
O1369       O  0.67451736  0.17122629  0.53652977    -0.79900
O1370       O  0.68711684  0.21240773  0.58989756    -0.79900
O1371       O  0.73427151  0.27916683  0.91040792    -0.79900
O1372       O  0.70340696  0.17415209  0.96126228    -0.79900
O1373       O  0.72068541  0.33934285  0.02424277    -0.79900
Co1374     Co  0.76611921  0.24863081  0.94922187     1.51500
Co1375     Co  0.72737778  0.26172804  0.57063651     1.51700
Co1376     Co  0.74923970  0.29778817  0.98437000     1.51600
Co1377     Co  0.73227564  0.17783258  0.51081018     1.51500
O1378       O  0.73440024  0.24349892  0.00979467    -1.41800
C1379       C  0.70435129  0.18613783  0.92595926     1.09700
C1380       C  0.68614338  0.33158577  0.54442148     1.09800
C1381       C  0.70045774  0.29654879  0.92352398     1.09800
C1382       C  0.66822365  0.17973082  0.57391571     1.09700
O1383       O  0.53664953  0.30465496  0.82663914    -0.79900
O1384       O  0.97399635  0.27721113  0.66698497    -0.79900
O1385       O  0.58323193  0.28070345  0.72257353    -0.79900
O1386       O  0.90227000  0.28905853  0.78770633    -0.79900
O1387       O  0.53922397  0.27444425  0.67380454    -0.80000
O1388       O  0.95110757  0.31749261  0.82419404    -0.79900
O1389       O  0.95000187  0.31561791  0.71955109    -0.79900
O1390       O  0.58804364  0.26672442  0.79342625    -0.79900
C1391       C  0.57553890  0.29618940  0.81875323     1.09800
C1392       C  0.95980038  0.31227847  0.68201157     1.09700
C1393       C  0.56991108  0.29286087  0.69036132     1.09800
C1394       C  0.91288867  0.31569885  0.81592380     1.09700
O1395       O  0.93531084  0.22677653  0.82764797    -0.79900
O1396       O  0.53127685  0.18489372  0.67336457    -0.80000
O1397       O  0.56397364  0.19057741  0.78794435    -0.79900
O1398       O  0.89334428  0.24805739  0.71177544    -0.79900
O1399       O  0.94350495  0.20520177  0.68373936    -0.79900
O1400       O  0.01970116  0.21725419  0.83679184    -0.79900
O1401       O  0.93220315  0.20384698  0.76395949    -0.79900
O1402       O  0.58347372  0.19283205  0.71273486    -0.79900
Co1403     Co  0.98640317  0.26582440  0.82352650     1.51500
Co1404     Co  0.49759068  0.23509462  0.70021234     1.51700
Co1405     Co  0.55607028  0.23631013  0.75325098     1.51600
Co1406     Co  0.94114505  0.25937091  0.74270652     1.51500
O1407       O  0.99715520  0.25740383  0.76105936    -1.41800
C1408       C  0.92273768  0.20005208  0.80075167     1.09700
C1409       C  0.56796392  0.17409953  0.68202320     1.09800
C1410       C  0.54767490  0.19112185  0.82348230     1.09800
C1411       C  0.90491765  0.21742362  0.68710231     1.09700
O1412       O  0.77633685  0.45892493  0.82473879    -0.79900
O1413       O  0.78380329  0.02099340  0.66272707    -0.79900
O1414       O  0.80046708  0.42126937  0.69100447    -0.79900
O1415       O  0.76816709  0.08511557  0.76787738    -0.79900
O1416       O  0.75596682  0.44651379  0.64924233    -0.80000
O1417       O  0.80140149  0.03383988  0.79173031    -0.79900
O1418       O  0.77492597  0.07869314  0.69989968    -0.79900
O1419       O  0.80972565  0.42379212  0.77370051    -0.79900
C1420       C  0.80478796  0.43195241  0.81163809     1.09800
C1421       C  0.79426532  0.05874755  0.67052466     1.09700
C1422       C  0.78982610  0.42686817  0.65553882     1.09800
C1423       C  0.79895601  0.07275623  0.78577114     1.09700
O1424       O  0.72396097  0.03575915  0.83539909    -0.79900
O1425       O  0.67960273  0.46354911  0.70218121    -0.80000
O1426       O  0.72008634  0.40934016  0.78819717    -0.79900
O1427       O  0.68895827  0.06403038  0.70093634    -0.79900
O1428       O  0.69918023  0.02305716  0.64515730    -0.79900
O1429       O  0.69271714  0.47178288  0.79019872    -0.79900
O1430       O  0.69239351  0.05596788  0.78170418    -0.79900
O1431       O  0.71394954  0.40393000  0.70427625    -0.79900
Co1432     Co  0.74741370  0.00173622  0.79012417     1.51500
Co1433     Co  0.73170048  0.49478388  0.68543873     1.51700
Co1434     Co  0.76094104  0.41836185  0.73889582     1.51600
Co1435     Co  0.73548132  0.04430849  0.73542986     1.51500
O1436       O  0.75963351  0.48249041  0.73466584    -1.41800
C1437       C  0.69707131  0.05846170  0.81978044     1.09700
C1438       C  0.68134136  0.42365145  0.69682509     1.09800
C1439       C  0.69127232  0.43478524  0.80156983     1.09800
C1440       C  0.68087235  0.05543437  0.66393395     1.09700
C1441       C  0.90406158  0.12445823  0.80298488     0.23800
C1442       C  0.89216543  0.16695344  0.80999224    -0.24300
C1443       C  0.84942624  0.17768154  0.81266774     0.18700
C1444       C  0.81880070  0.14628692  0.80716878     0.23800
C1445       C  0.83066155  0.10380260  0.79860346    -0.24200
C1446       C  0.87333543  0.09278125  0.79778017     0.18700
F1447       F  0.88553635  0.05217516  0.78835289    -0.14200
F1448       F  0.94554806  0.11425732  0.79799237    -0.16500
F1449       F  0.77777182  0.15788326  0.80765022    -0.16500
F1450       F  0.83767164  0.21897508  0.81669795    -0.14200
C1451       C  0.57640838  0.37017993  0.69304227     0.23800
C1452       C  0.58937166  0.33083277  0.67456504    -0.24300
C1453       C  0.62897245  0.32713841  0.65395411     0.18700
C1454       C  0.65765693  0.36086456  0.65627458     0.23800
C1455       C  0.64697136  0.39809372  0.68015125    -0.24200
C1456       C  0.60513291  0.40419770  0.69528685     0.18700
F1457       F  0.59394810  0.44033155  0.71740975    -0.14200
F1458       F  0.53860956  0.37337882  0.71471246    -0.16500
F1459       F  0.69767925  0.35503996  0.63980450    -0.16500
F1460       F  0.64209336  0.28880697  0.63753525    -0.14200
C1461       C  0.81159304  0.41779247  0.58179582     0.23800
C1462       C  0.81554063  0.40629980  0.62155872    -0.24300
C1463       C  0.83888420  0.36985369  0.62780375     0.18700
C1464       C  0.84779416  0.34038860  0.59557458     0.23800
C1465       C  0.83223252  0.34708094  0.55815178    -0.24200
C1466       C  0.82207799  0.38854617  0.54962472     0.18700
F1467       F  0.81138801  0.39687660  0.51203851    -0.14200
F1468       F  0.79319702  0.45477774  0.57442165    -0.16500
F1469       F  0.86099437  0.30119050  0.60330988    -0.16500
F1470       F  0.84698692  0.35918035  0.66551729    -0.14200
C1471       C  0.66125992  0.12233601  0.91058391     0.23800
C1472       C  0.67850045  0.16144110  0.89795664    -0.24300
C1473       C  0.68305107  0.16826916  0.85657408     0.18700
C1474       C  0.68058827  0.13364725  0.82894412     0.23800
C1475       C  0.67581249  0.09260006  0.84332319    -0.24200
C1476       C  0.66225151  0.08732517  0.88340632     0.18700
F1477       F  0.65424278  0.04802200  0.89682225    -0.14200
F1478       F  0.65050252  0.11606517  0.95014169    -0.16500
F1479       F  0.69103477  0.13943511  0.78922617    -0.16500
F1480       F  0.69674818  0.20631836  0.84320092    -0.14200
C1481       C  0.62986642  0.32427316  0.91090051     0.23800
C1482       C  0.67055303  0.31144211  0.89622580    -0.24300
C1483       C  0.68134940  0.30944418  0.85441487     0.18700
C1484       C  0.65017008  0.31299295  0.82771062     0.23800
C1485       C  0.60780279  0.31700088  0.84261271    -0.24200
C1486       C  0.59839451  0.32715290  0.88399771     0.18700
F1487       F  0.55803491  0.33401623  0.89897845    -0.14200
F1488       F  0.61940021  0.32971515  0.95121378    -0.16500
F1489       F  0.66048579  0.30619819  0.78743338    -0.16500
F1490       F  0.72109926  0.29991277  0.83913559    -0.14200
C1491       C  0.83364216  0.18764894  0.67610195     0.23800
C1492       C  0.87492989  0.19679335  0.66098419    -0.24300
C1493       C  0.88602828  0.19191036  0.61932617     0.18700
C1494       C  0.85477222  0.18337178  0.59259822     0.23800
C1495       C  0.81267672  0.17895906  0.60754294    -0.24200
C1496       C  0.80245933  0.17846660  0.64926847     0.18700
F1497       F  0.76159041  0.17434219  0.66376581    -0.14200
F1498       F  0.82302789  0.19090122  0.71649095    -0.16500
F1499       F  0.86452201  0.18544522  0.55223927    -0.16500
F1500       F  0.92583799  0.20118450  0.60428355    -0.14200
C1501       C  0.81618811  0.05636805  0.95229739     0.23800
C1502       C  0.85591374  0.05435491  0.93125764    -0.24300
C1503       C  0.86917908  0.08648122  0.90547049     0.18700
C1504       C  0.84930633  0.12519614  0.90993358     0.23800
C1505       C  0.81422317  0.13014595  0.93735637    -0.24200
C1506       C  0.79525245  0.09480899  0.95557374     0.18700
F1507       F  0.75961175  0.09896548  0.48052221    -0.14200
F1508       F  0.80160378  0.02439917  0.47536932    -0.16500
F1509       F  0.86866849  0.15936630  0.89351484    -0.16500
F1510       F  0.90621503  0.08333554  0.88245051    -0.14200
C1511       C  0.58114171  0.38299279  0.54304550     0.23800
C1512       C  0.59443736  0.42474798  0.53711908    -0.24300
C1513       C  0.63684859  0.43691804  0.53946819     0.18700
C1514       C  0.66652979  0.40678808  0.54546116     0.23800
C1515       C  0.65398868  0.36406112  0.54825661    -0.24200
C1516       C  0.61092139  0.35248182  0.54862825     0.18700
F1517       F  0.59811159  0.31132116  0.55081299    -0.14200
F1518       F  0.54007773  0.37124458  0.54003917    -0.16500
F1519       F  0.70773428  0.41905097  0.54680160    -0.16500
F1520       F  0.64958127  0.47781240  0.53480012    -0.14200
C1521       C  0.63619234  0.45165612  0.90333518     0.23800
C1522       C  0.59370030  0.45058748  0.89314798    -0.24300
C1523       C  0.58447206  0.43176778  0.85496318     0.18700
C1524       C  0.61712582  0.41979127  0.82609839     0.23800
C1525       C  0.65950026  0.42590661  0.83473717    -0.24200
C1526       C  0.66864799  0.43956417  0.87434940     0.18700
F1527       F  0.70934130  0.44616967  0.88365471    -0.14200
F1528       F  0.64706112  0.46846321  0.93986557    -0.16500
F1529       F  0.60740989  0.40504925  0.78861666    -0.16500
F1530       F  0.54392707  0.92709041  0.84453088    -0.14200
C1531       C  0.84932213  0.08046131  0.57216053     0.23800
C1532       C  0.89103189  0.07245195  0.58012937    -0.24300
C1533       C  0.90163066  0.07232504  0.62067440     0.18700
C1534       C  0.86979587  0.07462203  0.65227478     0.23800
C1535       C  0.82729003  0.07708987  0.64348729    -0.24200
C1536       C  0.81754909  0.08165586  0.60337824     0.18700
F1537       F  0.77666048  0.08262076  0.59390695    -0.14200
F1538       F  0.83868554  0.08195641  0.53350203    -0.16500
F1539       F  0.87974972  0.06788570  0.69049614    -0.16500
F1540       F  0.94158463  0.06330014  0.62927259    -0.14200
C1541       C  0.95223883  0.36738243  0.58611652     0.23800
C1542       C  0.95224667  0.41059854  0.59941570    -0.24300
C1543       C  0.95310189  0.42166691  0.64114832     0.18700
C1544       C  0.95409797  0.38986758  0.66885231     0.23800
C1545       C  0.95522930  0.34685578  0.65492813    -0.24200
C1546       C  0.95407456  0.33620354  0.61331611     0.18700
F1547       F  0.95442286  0.29513915  0.59838711    -0.14200
F1548       F  0.95132169  0.35457565  0.54634616    -0.16500
F1549       F  0.95523317  0.40118894  0.70888281    -0.16500
F1550       F  0.95318558  0.46299910  0.65512554    -0.14200
C1551       C  0.06381196  0.08859250  0.86795254     0.23800
C1552       C  0.55831764  0.10185598  0.90900863    -0.24300
C1553       C  0.55941483  0.14481707  0.92151553     0.18700
C1554       C  0.56121169  0.17479084  0.89266823     0.23800
C1555       C  0.56094995  0.16145084  0.85144916    -0.24200
C1556       C  0.06564155  0.11858178  0.83896475     0.18700
F1557       F  0.06664439  0.10551385  0.79917683    -0.14200
F1558       F  0.06332179  0.04671578  0.85597480    -0.16500
F1559       F  0.55894689  0.21660136  0.90499616    -0.16500
F1560       F  0.55428679  0.15748428  0.96138665    -0.14200
C1561       C  0.83140263  0.90621966  0.33990894     0.86700
C1562       C  0.80493727  0.88283273  0.37280751    -0.53500
C1563       C  0.82730653  0.85835268  0.39660850     0.09700
C1564       C  0.87629327  0.85962414  0.38433270     0.20600
C1565       C  0.86502712  0.93147037  0.36365018    -0.54200
C1566       C  0.88888238  0.90783455  0.38739573     0.09800
C1567       C  0.85706202  0.87063476  0.31575118    -0.53800
C1568       C  0.88128988  0.84658936  0.33762349     0.10300
H1569       H  0.77072046  0.88470008  0.37626879     0.14800
H1570       H  0.89510352  0.83998971  0.40292368     0.00600
H1571       H  0.86880324  0.96566707  0.36247749     0.15200
H1572       H  0.85789966  0.86604916  0.28301240     0.14900
C1573       C  0.65007428  0.58513056  0.14414753     0.86700
C1574       C  0.62072082  0.61328771  0.17417049    -0.53500
C1575       C  0.59386589  0.63988717  0.15674225     0.09700
C1576       C  0.59926395  0.63497470  0.10930449     0.20600
C1577       C  0.61984983  0.56114438  0.11658228    -0.54200
C1578       C  0.59297094  0.58569960  0.09800091     0.09800
C1579       C  0.67307020  0.61812143  0.11762263    -0.53800
C1580       C  0.64763698  0.64536141  0.09978990     0.10300
H1581       H  0.62225171  0.61326789  0.20673703     0.14800
H1582       H  0.57809010  0.65563219  0.09415416     0.00600
H1583       H  0.61988445  0.52677436  0.11186035     0.15200
H1584       H  0.70702669  0.62050038  0.11422813     0.14900
O1585       O  0.52591886  0.98240341  0.40452470    -0.79900
O1586       O  0.96084779  0.98170437  0.07762308    -0.79900
O1587       O  0.57118750  0.97452585  0.49433530    -0.79900
O1588       O  0.92406142  0.91895489  0.45106429    -0.79900
O1589       O  0.53421138  0.96731308  0.04908380    -0.80000
O1590       O  0.93834398  0.96406279  0.40323236    -0.79900
O1591       O  0.94658475  0.93024670  0.03277523    -0.79900
O1592       O  0.56755073  0.98495593  0.45698457    -0.79900
C1593       C  0.56024569  0.97319331  0.41976935     1.09800
C1594       C  0.95239612  0.94273812  0.06891945     1.09700
C1595       C  0.56521465  0.95577208  0.02633470     1.09800
C1596       C  0.92053626  0.92972539  0.41487243     1.09700
O1597       O  0.92508141  0.54529739  0.44594935    -0.79900
O1598       O  0.52593649  0.55000000  0.08160563    -0.80000
O1599       O  0.56264699  0.55148712  0.45711785    -0.79900
O1600       O  0.90326495  0.01017039  0.03970905    -0.79900
O1601       O  0.95379491  0.05977543  0.03736407    -0.79900
O1602       O  0.00158941  0.56737783  0.44113137    -0.79900
O1603       O  0.88124073  0.49454648  0.46149442    -0.79900
O1604       O  0.57557981  0.55323014  0.03242721    -0.79900
Co1605     Co  0.97385562  0.51300332  0.42680602     1.51500
Co1606     Co  0.49637448  0.01544181  0.03783964     1.51700
Co1607     Co  0.53172641  0.52163202  0.50019104     1.51600
Co1608     Co  0.91861334  0.96477792  0.99615393     1.51500
O1609       O  0.97865403  0.98930814  0.48153930    -1.41800
C1610       C  0.88878311  0.52952769  0.44635253     1.09700
C1611       C  0.56296345  0.56366780  0.06929789     1.09800
C1612       C  0.54051335  0.57238626  0.43687514     1.09800
C1613       C  0.91684536  0.54762368  0.04901587     1.09700
O1614       O  0.81246279  0.79206116  0.43073613    -0.79900
O1615       O  0.77653079  0.73236395  0.08357287    -0.79900
O1616       O  0.80350632  0.79941963  0.00966119    -0.79900
O1617       O  0.79015629  0.68028250  0.48780512    -0.78900
O1618       O  0.76840706  0.81041527  0.06833085    -0.80000
O1619       O  0.80258389  0.70226655  0.42857528    -0.79900
O1620       O  0.75915193  0.66794658  0.06189086    -0.79900
O1621       O  0.77204620  0.84511806  0.45053125    -0.79900
C1622       C  0.80400056  0.83139659  0.42819664     1.09800
C1623       C  0.78098124  0.69325109  0.08282231     1.09700
C1624       C  0.80147858  0.81532270  0.04517252     1.09800
C1625       C  0.80128921  0.67233110  0.45140972     1.09700
O1626       O  0.73021943  0.71411727  0.41387297    -0.79900
O1627       O  0.67913451  0.79602026  0.05956631    -0.80000
O1628       O  0.69413334  0.79961592  0.46095708    -0.79900
O1629       O  0.67452510  0.67120316  0.03653059    -0.79900
O1630       O  0.68711279  0.71239694  0.08989432    -0.79900
O1631       O  0.73426912  0.77916838  0.41041404    -0.79900
O1632       O  0.70338649  0.67415782  0.46126333    -0.79900
O1633       O  0.72070039  0.83933630  0.52425034    -0.79900
Co1634     Co  0.76611765  0.74862691  0.44922363     1.51500
Co1635     Co  0.72737994  0.76171132  0.07063526     1.51700
Co1636     Co  0.74924247  0.79778079  0.48437266     1.51600
Co1637     Co  0.73228016  0.67781554  0.01080253     1.51500
O1638       O  0.73440210  0.74349076  0.50979702    -1.41800
C1639       C  0.70433361  0.68614930  0.42596178     1.09700
C1640       C  0.68615765  0.83157899  0.04442401     1.09800
C1641       C  0.70045666  0.79655198  0.42353159     1.09800
C1642       C  0.66822512  0.67971561  0.07391506     1.09700
O1643       O  0.53665185  0.80466634  0.32663633    -0.79900
O1644       O  0.97399905  0.77721411  0.16698758    -0.79900
O1645       O  0.58323143  0.78070627  0.22257523    -0.79900
O1646       O  0.90227219  0.78906372  0.28770777    -0.79900
O1647       O  0.53923097  0.77443249  0.17379979    -0.80000
O1648       O  0.95110869  0.81750610  0.32419112    -0.79900
O1649       O  0.95000569  0.81562532  0.21955176    -0.79900
O1650       O  0.58804507  0.76672841  0.29343085    -0.79900
C1651       C  0.57554087  0.79619573  0.31875567     1.09800
C1652       C  0.95980411  0.81228269  0.18201226     1.09700
C1653       C  0.56991541  0.79285414  0.19035727     1.09800
C1654       C  0.91288918  0.81570586  0.31592353     1.09700
O1655       O  0.93531806  0.72678917  0.32765322    -0.79900
O1656       O  0.53127233  0.68488788  0.17337445    -0.80000
O1657       O  0.56397016  0.69057954  0.28794847    -0.79900
O1658       O  0.89334383  0.74806942  0.21178149    -0.79900
O1659       O  0.94349730  0.70520733  0.18374527    -0.79900
O1660       O  0.01970691  0.71727586  0.33680168    -0.79900
O1661       O  0.93220645  0.70385760  0.26396464    -0.79900
O1662       O  0.58347592  0.69283989  0.21273663    -0.79900
Co1663     Co  0.98640703  0.76584094  0.32352915     1.51500
Co1664     Co  0.49758931  0.73509422  0.20021315     1.51700
Co1665     Co  0.55607176  0.73631437  0.25325461     1.51600
Co1666     Co  0.94114771  0.75937970  0.24270894     1.51500
O1667       O  0.99715689  0.75741265  0.26106280    -1.41800
C1668       C  0.92274737  0.70006162  0.30075803     1.09700
C1669       C  0.56796287  0.67410097  0.18202977     1.09800
C1670       C  0.54767408  0.69113132  0.32348787     1.09800
C1671       C  0.90491037  0.71743164  0.18711078     1.09700
O1672       O  0.77632484  0.95891441  0.32473255    -0.79900
O1673       O  0.78379321  0.52100001  0.16273293    -0.79900
O1674       O  0.80047561  0.92126983  0.19099884    -0.79900
O1675       O  0.76818848  0.58512169  0.26787735    -0.79900
O1676       O  0.75598033  0.94650841  0.14922902    -0.80000
O1677       O  0.80142084  0.53384405  0.29172992    -0.79900
O1678       O  0.77491782  0.57870456  0.19989845    -0.79900
O1679       O  0.80972228  0.92378624  0.27369652    -0.79900
C1680       C  0.80477995  0.93194546  0.31163415     1.09800
C1681       C  0.79425098  0.55875759  0.17052133     1.09700
C1682       C  0.78983635  0.92685966  0.15553107     1.09800
C1683       C  0.79897847  0.57275976  0.28576851     1.09700
O1684       O  0.72398208  0.53578414  0.33540687    -0.79900
O1685       O  0.67960822  0.96354036  0.20215809    -0.80000
O1686       O  0.72008409  0.90932476  0.28817991    -0.79900
O1687       O  0.68895925  0.56403596  0.20094847    -0.79900
O1688       O  0.69916877  0.52305363  0.14517396    -0.79900
O1689       O  0.69270776  0.97176417  0.29018189    -0.79900
O1690       O  0.69240616  0.55598229  0.28171253    -0.79900
O1691       O  0.71395716  0.90392258  0.20425769    -0.79900
Co1692     Co  0.74742785  0.50174977  0.29013447     1.51500
Co1693     Co  0.73170798  0.99477702  0.18542647     1.51700
Co1694     Co  0.76094338  0.91835466  0.23888453     1.51600
Co1695     Co  0.73548861  0.54431742  0.23543805     1.51500
O1696       O  0.75963066  0.98248298  0.23465982    -1.41800
C1697       C  0.69708880  0.55848235  0.31978740     1.09700
C1698       C  0.68134890  0.92364253  0.19680357     1.09800
C1699       C  0.69126598  0.93476566  0.30155095     1.09800
C1700       C  0.68086585  0.55543403  0.16394861     1.09700
C1701       C  0.90408556  0.62446396  0.30296939     0.23800
C1702       C  0.89218468  0.66695566  0.31000134    -0.24300
C1703       C  0.84944367  0.67767802  0.31269725     0.18700
C1704       C  0.81882057  0.64628213  0.30719312     0.23800
C1705       C  0.83068560  0.60380309  0.29860189    -0.24200
C1706       C  0.87336191  0.59278585  0.29775832     0.18700
F1707       F  0.88556601  0.55218564  0.28830261    -0.14200
F1708       F  0.94557302  0.61427029  0.29795477    -0.16500
F1709       F  0.77778839  0.65787272  0.30769726    -0.16500
F1710       F  0.83768346  0.71896921  0.31675385    -0.14200
C1711       C  0.57641604  0.87017173  0.19302669     0.23800
C1712       C  0.58937810  0.83082192  0.17455496    -0.24300
C1713       C  0.62897964  0.82712304  0.15394610     0.18700
C1714       C  0.65766474  0.86084918  0.15626138     0.23800
C1715       C  0.64697940  0.89808243  0.18013186    -0.24200
C1716       C  0.60514115  0.90418902  0.19526663     0.18700
F1717       F  0.59395751  0.94032498  0.21738665    -0.14200
F1718       F  0.53861857  0.87337381  0.21469860    -0.16500
F1719       F  0.69768726  0.85502137  0.13979305    -0.16500
F1720       F  0.64210032  0.78878859  0.13753454    -0.14200
C1721       C  0.81161895  0.91776541  0.08179114     0.23800
C1722       C  0.81554899  0.90627597  0.12155779    -0.24300
C1723       C  0.83887662  0.86982245  0.12781455     0.18700
C1724       C  0.84779106  0.84035270  0.09559037     0.23800
C1725       C  0.83224822  0.84704677  0.05815973    -0.24200
C1726       C  0.82210981  0.88851422  0.04962524     0.18700
F1727       F  0.81144092  0.89684523  0.01203245    -0.14200
F1728       F  0.79323714  0.95475489  0.07440687    -0.16500
F1729       F  0.86097325  0.80115072  0.10333522    -0.16500
F1730       F  0.84695843  0.85914790  0.16553320    -0.14200
C1731       C  0.66123237  0.62235968  0.41057818     0.23800
C1732       C  0.67847739  0.66146445  0.39795590    -0.24300
C1733       C  0.68304393  0.66829144  0.35657350     0.18700
C1734       C  0.68060182  0.63366706  0.32894415     0.23800
C1735       C  0.67582636  0.59262082  0.34332519    -0.24200
C1736       C  0.66224540  0.58734632  0.38340328     0.18700
F1737       F  0.65423500  0.54804319  0.39681833    -0.14200
F1738       F  0.65045655  0.61609195  0.45013318    -0.16500
F1739       F  0.69106727  0.63945329  0.28922910    -0.16500
F1740       F  0.69674392  0.70634109  0.34320351    -0.14200
C1741       C  0.62986572  0.82427792  0.41090733     0.23800
C1742       C  0.67055295  0.81144811  0.39623362    -0.24300
C1743       C  0.68135053  0.80945098  0.35442273     0.18700
C1744       C  0.65017169  0.81299669  0.32771752     0.23800
C1745       C  0.60780406  0.81700382  0.34261833    -0.24200
C1746       C  0.59839420  0.82715534  0.38400335     0.18700
F1747       F  0.55803398  0.83401769  0.39898263    -0.14200
F1748       F  0.61939915  0.82972151  0.45122064    -0.16500
F1749       F  0.66048874  0.80620202  0.28744049    -0.16500
F1750       F  0.72110152  0.79992297  0.33914432    -0.14200
C1751       C  0.83361334  0.68770045  0.17612692     0.23800
C1752       C  0.87491190  0.69679437  0.16100537    -0.24300
C1753       C  0.88601486  0.69184865  0.11935111     0.18700
C1754       C  0.85475798  0.68329938  0.09262503     0.23800
C1755       C  0.81265669  0.67893566  0.10756807    -0.24200
C1756       C  0.80243086  0.67850317  0.14929628     0.18700
F1757       F  0.76155598  0.67443125  0.16379271    -0.14200
F1758       F  0.82298953  0.69101867  0.21651306    -0.16500
F1759       F  0.86451844  0.68531009  0.05226159    -0.16500
F1760       F  0.92583510  0.70106965  0.10430247    -0.14200
C1761       C  0.81617178  0.55635234  0.45225354     0.23800
C1762       C  0.85591065  0.55434885  0.43123810    -0.24300
C1763       C  0.86918810  0.58648225  0.40546293     0.18700
C1764       C  0.84931339  0.62519617  0.40992636     0.23800
C1765       C  0.81421349  0.63013575  0.43733014    -0.24200
C1766       C  0.79523247  0.59479155  0.45552650     0.18700
F1767       F  0.75958483  0.59894908  0.98047431    -0.14200
F1768       F  0.80157173  0.52437837  0.97532687    -0.16500
F1769       F  0.86868771  0.65937358  0.39353203    -0.16500
F1770       F  0.90623566  0.58334477  0.38246021    -0.14200
C1771       C  0.58115608  0.88300781  0.04311136     0.23800
C1772       C  0.59445700  0.92474874  0.03711960    -0.24300
C1773       C  0.63687621  0.93691082  0.03941614     0.18700
C1774       C  0.66655818  0.90678355  0.04541325     0.23800
C1775       C  0.65401020  0.86406399  0.04826308    -0.24200
C1776       C  0.61093646  0.85249762  0.04869552     0.18700
F1777       F  0.59811512  0.81134696  0.05094560    -0.14200
F1778       F  0.54008190  0.87126787  0.04016769    -0.16500
F1779       F  0.70776869  0.91904111  0.04670333    -0.16500
F1780       F  0.64961496  0.97779466  0.03469542    -0.14200
C1781       C  0.63619450  0.95163167  0.40331833     0.23800
C1782       C  0.59370153  0.95056329  0.39313475    -0.24300
C1783       C  0.58446951  0.93174143  0.35495168     0.18700
C1784       C  0.61712090  0.91976748  0.32608325     0.23800
C1785       C  0.65949628  0.92588338  0.33471882    -0.24200
C1786       C  0.66864740  0.93953850  0.37433057     0.18700
F1787       F  0.70934157  0.94614259  0.38363319    -0.14200
F1788       F  0.64706703  0.96844036  0.43984671    -0.16500
F1789       F  0.60740155  0.90502544  0.28860236    -0.16500
F1790       F  0.54393109  0.42712498  0.34453705    -0.14200
C1791       C  0.84928516  0.58043193  0.07213998     0.23800
C1792       C  0.89100247  0.57246461  0.08011501    -0.24300
C1793       C  0.90160550  0.57238481  0.12066163     0.18700
C1794       C  0.86977035  0.57468177  0.15226185     0.23800
C1795       C  0.82726132  0.57710296  0.14347130    -0.24200
C1796       C  0.81751339  0.58162905  0.10335792     0.18700
F1797       F  0.77662277  0.58255585  0.09388578    -0.14200
F1798       F  0.83864391  0.58188210  0.03347880    -0.16500
F1799       F  0.87973230  0.56799146  0.19049056    -0.16500
F1800       F  0.94156844  0.56340383  0.12926632    -0.14200
C1801       C  0.95222547  0.86737540  0.08611387     0.23800
C1802       C  0.95225390  0.91059320  0.09940723    -0.24300
C1803       C  0.95312380  0.92166638  0.14113779     0.18700
C1804       C  0.95411680  0.88987051  0.16884523     0.23800
C1805       C  0.95523133  0.84685698  0.15492642    -0.24200
C1806       C  0.95405927  0.83619932  0.11331697     0.18700
F1807       F  0.95438987  0.79513245  0.09839463    -0.14200
F1808       F  0.95129447  0.85456439  0.04634563    -0.16500
F1809       F  0.95526721  0.90119667  0.20887340    -0.16500
F1810       F  0.95322709  0.96300010  0.15510973    -0.14200
C1811       C  0.06380503  0.58860971  0.36797644     0.23800
C1812       C  0.55829225  0.60187698  0.40902816    -0.24300
C1813       C  0.55938773  0.64483920  0.42153070     0.18700
C1814       C  0.56119753  0.67480912  0.39267943     0.23800
C1815       C  0.56094577  0.66146433  0.35146051    -0.24200
C1816       C  0.06564051  0.61859637  0.33898611     0.18700
F1817       F  0.06665514  0.60552459  0.29919874    -0.14200
F1818       F  0.06332127  0.54673233  0.35600132    -0.16500
F1819       F  0.55893487  0.71662114  0.40500229    -0.16500
F1820       F  0.55424925  0.65751154  0.46140000    -0.14200
C1821       C  0.83140256  0.90621880  0.83990741     0.86700
C1822       C  0.80493751  0.88283125  0.87280595    -0.53500
C1823       C  0.82730719  0.85835124  0.89660680     0.09700
C1824       C  0.87629379  0.85962321  0.88433082     0.20600
C1825       C  0.86502695  0.93146953  0.86364899    -0.54200
C1826       C  0.88888237  0.90783369  0.88739451     0.09800
C1827       C  0.85706221  0.87063432  0.81574942    -0.53800
C1828       C  0.88129027  0.84658888  0.83762147     0.10300
H1829       H  0.77072074  0.88469825  0.87626739     0.14800
H1830       H  0.89510427  0.83998873  0.90292154     0.00600
H1831       H  0.86880271  0.96566629  0.86247669     0.15200
H1832       H  0.85789974  0.86604889  0.78301065     0.14900
C1833       C  0.65007341  0.58513272  0.64414704     0.86700
C1834       C  0.62071954  0.61328835  0.67417082    -0.53500
C1835       C  0.59386425  0.63988826  0.65674337     0.09700
C1836       C  0.59926259  0.63497749  0.60930562     0.20600
C1837       C  0.61984983  0.56114709  0.61658080    -0.54200
C1838       C  0.59297035  0.58570256  0.59800030     0.09800
C1839       C  0.67306992  0.61812531  0.61762346    -0.53800
C1840       C  0.64763504  0.64536577  0.59979175     0.10300
H1841       H  0.62225034  0.61326748  0.70673691     0.14800
H1842       H  0.57808824  0.65563530  0.59415596     0.00600
H1843       H  0.61988491  0.52677751  0.61185787     0.15200
H1844       H  0.70702051  0.62050445  0.61422977     0.14900
O1845       O  0.52591987  0.98240137  0.90452506    -0.79900
O1846       O  0.96084831  0.98170600  0.57762252    -0.79900
O1847       O  0.57118751  0.97452204  0.99433560    -0.79900
O1848       O  0.92406107  0.91895362  0.95106379    -0.79900
O1849       O  0.53421138  0.96731455  0.54908300    -0.80000
O1850       O  0.93834297  0.96406233  0.90323233    -0.79900
O1851       O  0.94658374  0.93024835  0.53277517    -0.79900
O1852       O  0.56755173  0.98495237  0.95698484    -0.79900
C1853       C  0.56024656  0.97319042  0.91976948     1.09800
C1854       C  0.95239658  0.94273979  0.56891902     1.09700
C1855       C  0.56521500  0.95577491  0.52633389     1.09800
C1856       C  0.92053574  0.92972457  0.91487196     1.09700
O1857       O  0.92507741  0.54529616  0.94594937    -0.79900
O1858       O  0.52593615  0.55000185  0.58160527    -0.80000
O1859       O  0.56264969  0.55148395  0.95711862    -0.79900
O1860       O  0.90326568  0.01017258  0.53970805    -0.79900
O1861       O  0.95379632  0.05977683  0.53736340    -0.79900
O1862       O  0.00158606  0.56737834  0.94113299    -0.79900
O1863       O  0.88123884  0.49454375  0.96149622    -0.79900
O1864       O  0.57557848  0.55323399  0.53242629    -0.79900
Co1865     Co  0.97385320  0.51300362  0.92680668     1.51500
Co1866     Co  0.49637407  0.01544272  0.53783944     1.51700
Co1867     Co  0.53172764  0.52162922  0.00019143     1.51600
Co1868     Co  0.91861383  0.96477987  0.49615336     1.51500
O1869       O  0.97865272  0.98930779  0.98153972    -1.41800
C1870       C  0.88877960  0.52952478  0.94635353     1.09700
C1871       C  0.56296262  0.56367082  0.56929728     1.09800
C1872       C  0.54051620  0.57238363  0.93687628     1.09800
C1873       C  0.91684638  0.54762550  0.54901459     1.09700
O1874       O  0.81246471  0.79205942  0.93073439    -0.79900
O1875       O  0.77653254  0.73236593  0.58357006    -0.79900
O1876       O  0.80350502  0.79942134  0.50966108    -0.79900
O1877       O  0.79016277  0.68028652  0.98780363    -0.78900
O1878       O  0.76840839  0.81041854  0.56833168    -0.80000
O1879       O  0.80258773  0.70226460  0.92857185    -0.79900
O1880       O  0.75914498  0.66794939  0.56189304    -0.79900
O1881       O  0.77204791  0.84511581  0.95053039    -0.79900
C1882       C  0.80400203  0.83139480  0.92819522     1.09800
C1883       C  0.78097947  0.69325268  0.58282083     1.09700
C1884       C  0.80147893  0.81532549  0.54517194     1.09800
C1885       C  0.80129453  0.67233131  0.95140865     1.09700
O1886       O  0.73022053  0.71411528  0.91387121    -0.79900
O1887       O  0.67913516  0.79602487  0.55957129    -0.80000
O1888       O  0.69413598  0.79961216  0.96095474    -0.79900
O1889       O  0.67451744  0.67121338  0.53653284    -0.79900
O1890       O  0.68711406  0.71240035  0.58989807    -0.79900
O1891       O  0.73427202  0.77916631  0.91041139    -0.79900
O1892       O  0.70339402  0.67415231  0.96126136    -0.79900
O1893       O  0.72070068  0.83933315  0.02424821    -0.79900
Co1894     Co  0.76612010  0.74862428  0.94922109     1.51500
Co1895     Co  0.72738093  0.76171476  0.57063730     1.51700
Co1896     Co  0.74924463  0.79777791  0.98437133     1.51600
Co1897     Co  0.73227302  0.67781934  0.51080438     1.51500
O1898       O  0.73440456  0.74348711  0.00979503    -1.41800
C1899       C  0.70433729  0.68614536  0.92596056     1.09700
C1900       C  0.68615788  0.83158286  0.54442727     1.09800
C1901       C  0.70045943  0.79654948  0.92352925     1.09800
C1902       C  0.66822230  0.67972183  0.57391829     1.09700
O1903       O  0.53665239  0.80466968  0.82663575    -0.79900
O1904       O  0.97400290  0.77721502  0.66698568    -0.79900
O1905       O  0.58323114  0.78070430  0.72257778    -0.79900
O1906       O  0.90227254  0.78906460  0.78770420    -0.79900
O1907       O  0.53922988  0.77443351  0.67380285    -0.80000
O1908       O  0.95110846  0.81750435  0.82418981    -0.79900
O1909       O  0.95000876  0.81562631  0.71954956    -0.79900
O1910       O  0.58804354  0.76672483  0.79343511    -0.79900
C1911       C  0.57554093  0.79619552  0.81875701     1.09800
C1912       C  0.95980840  0.81228379  0.68201030     1.09700
C1913       C  0.56991529  0.79285334  0.69036012     1.09800
C1914       C  0.91288931  0.81570537  0.81592117     1.09700
O1915       O  0.93531696  0.72678756  0.82764944    -0.79900
O1916       O  0.53127114  0.68488940  0.67337635    -0.80000
O1917       O  0.56396087  0.69057434  0.78794861    -0.79900
O1918       O  0.89334511  0.74807226  0.71177673    -0.79900
O1919       O  0.94349785  0.70520903  0.68374083    -0.79900
O1920       O  0.01970554  0.71727294  0.83679866    -0.79900
O1921       O  0.93220470  0.70385834  0.76396017    -0.79900
O1922       O  0.58347432  0.69283951  0.71273914    -0.79900
Co1923     Co  0.98640611  0.76583875  0.82352696     1.51500
Co1924     Co  0.49758819  0.73509555  0.70021567     1.51700
Co1925     Co  0.55606961  0.73631325  0.75325751     1.51600
Co1926     Co  0.94114838  0.75938062  0.74270561     1.51500
O1927       O  0.99715698  0.75741164  0.76106074    -1.41800
C1928       C  0.92274591  0.70006123  0.80075346     1.09700
C1929       C  0.56796141  0.67410162  0.68203173     1.09800
C1930       C  0.54766992  0.69113048  0.82349006     1.09800
C1931       C  0.90491123  0.71743440  0.68710589     1.09700
O1932       O  0.77632432  0.95891334  0.82473060    -0.79900
O1933       O  0.78379221  0.52100079  0.66273025    -0.79900
O1934       O  0.80047566  0.92127049  0.69099632    -0.79900
O1935       O  0.76818771  0.58512113  0.76787640    -0.79900
O1936       O  0.75598022  0.94650935  0.64922661    -0.80000
O1937       O  0.80142032  0.53384303  0.79172803    -0.79900
O1938       O  0.77491822  0.57870469  0.69989696    -0.79900
O1939       O  0.80972225  0.92378568  0.77369461    -0.79900
C1940       C  0.80477969  0.93194459  0.81163235     1.09800
C1941       C  0.79425054  0.55875814  0.67051903     1.09700
C1942       C  0.78983658  0.92686102  0.65552856     1.09800
C1943       C  0.79897782  0.57275880  0.78576705     1.09700
O1944       O  0.72398156  0.53578277  0.83540502    -0.79900
O1945       O  0.67960794  0.96354031  0.70215580    -0.80000
O1946       O  0.72008400  0.90932391  0.78817739    -0.79900
O1947       O  0.68895941  0.56403731  0.70094711    -0.79900
O1948       O  0.69916752  0.52305482  0.64517255    -0.79900
O1949       O  0.69270715  0.97176298  0.79017949    -0.79900
O1950       O  0.69240576  0.55598157  0.78171083    -0.79900
O1951       O  0.71395753  0.90392281  0.70425500    -0.79900
Co1952     Co  0.74742745  0.50174883  0.79013256     1.51500
Co1953     Co  0.73170734  0.99477754  0.68542430     1.51700
Co1954     Co  0.76094345  0.91835457  0.73888208     1.51600
Co1955     Co  0.73548847  0.54431749  0.73543630     1.51500
O1956       O  0.75963028  0.98248294  0.73465757    -1.41800
C1957       C  0.69708802  0.55848088  0.81978580     1.09700
C1958       C  0.68134901  0.92364250  0.69680122     1.09800
C1959       C  0.69126568  0.93476452  0.80154863     1.09800
C1960       C  0.68086541  0.55543563  0.66394740     1.09700
C1961       C  0.90408531  0.62446333  0.80296249     0.23800
C1962       C  0.89218398  0.66695470  0.80999630    -0.24300
C1963       C  0.84944279  0.67767659  0.81269540     0.18700
C1964       C  0.81881972  0.64628034  0.80719321     0.23800
C1965       C  0.83068514  0.60380175  0.79859990    -0.24200
C1966       C  0.87336178  0.59278502  0.79775258     0.18700
F1967       F  0.88556597  0.55218526  0.78829439    -0.14200
F1968       F  0.94557281  0.61427036  0.79794480    -0.16500
F1969       F  0.77778694  0.65787003  0.80770140    -0.16500
F1970       F  0.83768203  0.71896757  0.81675422    -0.14200
C1971       C  0.57641664  0.87017094  0.69302787     0.23800
C1972       C  0.58937895  0.83082054  0.67455779    -0.24300
C1973       C  0.62898019  0.82712103  0.65394851     0.18700
C1974       C  0.65766477  0.86084773  0.65626137     0.23800
C1975       C  0.64697943  0.89808191  0.68013044    -0.24200
C1976       C  0.60514136  0.90418867  0.69526569     0.18700
F1977       F  0.59395769  0.94032551  0.71738425    -0.14200
F1978       F  0.53861925  0.87337366  0.71469985    -0.16500
F1979       F  0.69768704  0.85501980  0.63979241    -0.16500
F1980       F  0.64210094  0.78878604  0.63753837    -0.14200
C1981       C  0.81161895  0.91776811  0.58178846     0.23800
C1982       C  0.81554996  0.90627869  0.62155498    -0.24300
C1983       C  0.83887936  0.86982614  0.62781119     0.18700
C1984       C  0.84779434  0.84035680  0.59558675     0.23800
C1985       C  0.83224942  0.84704993  0.55815681    -0.24200
C1986       C  0.82210995  0.88851713  0.54962241     0.18700
F1987       F  0.81144013  0.89684781  0.51202984    -0.14200
F1988       F  0.79323614  0.95475717  0.57440455    -0.16500
F1989       F  0.86097888  0.80115553  0.60333104    -0.16500
F1990       F  0.84696261  0.85915197  0.66552957    -0.14200
C1991       C  0.66123532  0.62235566  0.91057856     0.23800
C1992       C  0.67847939  0.66146070  0.89795599    -0.24300
C1993       C  0.68304251  0.66828872  0.85657371     0.18700
C1994       C  0.68059865  0.63366492  0.82894391     0.23800
C1995       C  0.67582464  0.59261831  0.84332434    -0.24200
C1996       C  0.66224618  0.58734295  0.88340292     0.18700
F1997       F  0.65423732  0.54803944  0.89681767    -0.14200
F1998       F  0.65046273  0.61608696  0.95013396    -0.16500
F1999       F  0.69106181  0.63945203  0.78922863    -0.16500
F2000       F  0.69674105  0.70633881  0.84320370    -0.14200
C2001       C  0.62986894  0.82427758  0.91090652     0.23800
C2002       C  0.67055548  0.81144637  0.89623185    -0.24300
C2003       C  0.68135185  0.80944870  0.85442076     0.18700
C2004       C  0.65017226  0.81299521  0.82771642     0.23800
C2005       C  0.60780512  0.81700357  0.84261837    -0.24200
C2006       C  0.59839663  0.82715557  0.88400344     0.18700
F2007       F  0.55803688  0.83401871  0.89898368    -0.14200
F2008       F  0.61940369  0.82972209  0.95121999    -0.16500
F2009       F  0.66048778  0.80619974  0.78743921    -0.16500
F2010       F  0.72110217  0.79991927  0.83914137    -0.14200
C2011       C  0.83361470  0.68770103  0.67612296     0.23800
C2012       C  0.87491237  0.69679756  0.66100052    -0.24300
C2013       C  0.88601418  0.69185335  0.61934601     0.18700
C2014       C  0.85475683  0.68330231  0.59262071     0.23800
C2015       C  0.81265607  0.67893590  0.60756469    -0.24200
C2016       C  0.80243172  0.67850227  0.64929308     0.18700
F2017       F  0.76155742  0.67442816  0.66379058    -0.14200
F2018       F  0.82299209  0.69101782  0.71650935    -0.16500
F2019       F  0.86451583  0.68531461  0.55225719    -0.16500
F2020       F  0.92583341  0.70107727  0.60429657    -0.14200
C2021       C  0.81616939  0.55635134  0.95225891     0.23800
C2022       C  0.85590560  0.55434360  0.93123876    -0.24300
C2023       C  0.86918130  0.58647349  0.90545920     0.18700
C2024       C  0.84931013  0.62518933  0.90992300     0.23800
C2025       C  0.81421426  0.63013376  0.93733108    -0.24200
C2026       C  0.79523314  0.59479234  0.95553223     0.18700
F2027       F  0.75958041  0.59894396  0.48046399    -0.14200
F2028       F  0.80157295  0.52437651  0.47531738    -0.16500
F2029       F  0.86868525  0.65936399  0.89352458    -0.16500
F2030       F  0.90622577  0.58333127  0.88245208    -0.14200
C2031       C  0.58115650  0.88301150  0.54311291     0.23800
C2032       C  0.59445771  0.92475181  0.53711836    -0.24300
C2033       C  0.63687699  0.93691392  0.53941386     0.18700
C2034       C  0.66655875  0.90678716  0.54541289     0.23800
C2035       C  0.65401054  0.86406795  0.54826540    -0.24200
C2036       C  0.61093675  0.85250169  0.54869867     0.18700
F2037       F  0.59811518  0.81135137  0.55095130    -0.14200
F2038       F  0.54008204  0.87127166  0.54017084    -0.16500
F2039       F  0.70776932  0.91904475  0.54670220    -0.16500
F2040       F  0.64961593  0.97779735  0.53469091    -0.14200
C2041       C  0.63619522  0.95162840  0.90331727     0.23800
C2042       C  0.59370207  0.95056048  0.89313424    -0.24300
C2043       C  0.58446960  0.93173977  0.85495085     0.18700
C2044       C  0.61712063  0.91976663  0.82608170     0.23800
C2045       C  0.65949620  0.92588206  0.83471680    -0.24200
C2046       C  0.66864782  0.93953612  0.87432873     0.18700
F2047       F  0.70934213  0.94613993  0.88363098    -0.14200
F2048       F  0.64706816  0.96843583  0.93984597    -0.16500
F2049       F  0.60740069  0.90502581  0.78860063    -0.16500
F2050       F  0.54393124  0.42712288  0.84453725    -0.14200
C2051       C  0.84928536  0.58043289  0.57213748     0.23800
C2052       C  0.89100290  0.57246695  0.58011302    -0.24300
C2053       C  0.90160546  0.57238804  0.62065987     0.18700
C2054       C  0.86976985  0.57468412  0.65225976     0.23800
C2055       C  0.82726082  0.57710368  0.64346876    -0.24200
C2056       C  0.81751319  0.58162924  0.60335515     0.18700
F2057       F  0.77662262  0.58255519  0.59388260    -0.14200
F2058       F  0.83864434  0.58188196  0.53347604    -0.16500
F2059       F  0.87973166  0.56799464  0.69048868    -0.16500
F2060       F  0.94156859  0.56340849  0.62926511    -0.14200
C2061       C  0.95223134  0.86737718  0.58611224     0.23800
C2062       C  0.95225656  0.91059476  0.59940629    -0.24300
C2063       C  0.95312531  0.92166762  0.64113697     0.18700
C2064       C  0.95411945  0.88987154  0.66884399     0.23800
C2065       C  0.95523664  0.84685824  0.65492456    -0.24200
C2066       C  0.95406674  0.83620097  0.61331484     0.18700
F2067       F  0.95440061  0.79513440  0.59839168    -0.14200
F2068       F  0.95130174  0.85456655  0.54634378    -0.16500
F2069       F  0.95526788  0.90119730  0.70887241    -0.16500
F2070       F  0.95322578  0.96300120  0.65510942    -0.14200
C2071       C  0.06379651  0.58860646  0.86797427     0.23800
C2072       C  0.55829475  0.60187446  0.90902923    -0.24300
C2073       C  0.55939017  0.64483660  0.92153210     0.18700
C2074       C  0.56119642  0.67480696  0.89268125     0.23800
C2075       C  0.56094154  0.66146268  0.85146234    -0.24200
C2076       C  0.06563279  0.61859210  0.83898297     0.18700
F2077       F  0.06664209  0.60551918  0.79919608    -0.14200
F2078       F  0.06330750  0.54672888  0.85600039    -0.16500
F2079       F  0.55893431  0.71661877  0.90500495    -0.16500
F2080       F  0.55425463  0.65750833  0.96140173    -0.14200
loop_ 
_geom_bond_atom_site_label_1 
_geom_bond_atom_site_label_2 
_geom_bond_distance 
_geom_bond_site_symmetry_2 
_ccdc_geom_bond_type 
C1            C2   1.545       .  S
C1            C7   1.551       .  S
C1            C5   1.549       .  S
C1          C120   1.575       .  S
C2            H9   1.086       .  S
C2            C3   1.377       .  D
C3            C4   1.580       .  S
C3           C62   1.531       .  S
C4            C8   1.578       .  S
C4            C6   1.564       .  S
C4           H10   1.110       .  S
C5           H11   1.086       .  S
C5            C6   1.388       .  D
C6           C36   1.530       .  S
C7           H12   1.086       .  S
C7            C8   1.364       .  D
C8           C94   1.526       .  S
C13          C14   1.565       .  S
C13          C19   1.544       .  S
C13          C17   1.529       .  S
C13         C140   1.570       .  S
C14          H21   1.085       .  S
C14          C15   1.386       .  D
C15          C16   1.570       .  S
C15         C109   1.542       .  S
C16          C20   1.577       .  S
C16          C18   1.589       .  S
C16          H22   1.110       .  S
C17          H23   1.086       .  S
C17          C18   1.365       .  D
C18          C51   1.522       .  S
C19          H24   1.077       .  S
C19          C20   1.377       .  D
C20          C82   1.532       .  S
O25          C33   1.278       .  A
O25       Co1605   2.004   1_455  S
O26          C34   1.274       .  A
O26       Co1086   2.016       .  S
O27         C295   1.248       .  A
O27        Co567   1.954       .  S
O28          C36   1.281       .  A
O28        Co308   2.018       .  S
O29          C35   1.244       .  A
O29         Co46   2.022   1_455  S
O30          C36   1.280       .  A
O30        Co565   2.042       .  S
O31          C34   1.264       .  A
O31         Co48   1.949   1_554  S
O32          C33   1.303       .  A
O32        Co567   2.076       .  S
C33         C222   1.497       .  S
C34         C242   1.475       .  S
C35         O287   1.248   1_554  A
C35         C212   1.439       .  S
O37          C50   1.245       .  A
O37         Co45   1.920       .  S
O38          C51   1.291       .  A
O38        Co566   2.033   1_455  S
O39          C52   1.231       .  A
O39         Co47   1.956       .  S
O40         C573   1.277       .  A
O40         Co48   2.015   1_554  S
O41         C573   1.268       .  A
O41       Co1086   1.965       .  S
O42        C1092   1.241       .  A
O42         Co45   1.960       .  S
O43          C50   1.252   1_565  A
O43        Co828   1.993       .  S
O44          C51   1.287       .  A
O44        Co307   2.024       .  S
Co45       O1585   2.004   1_545  S
Co45        O550   2.042   1_545  S
Co45        O569   2.022   1_545  S
Co46       O1066   2.016       .  S
Co46        O558   2.033   1_655  S
Co46       O1081   1.965       .  S
Co46       O1349   2.104   1_554  S
Co47        O547   1.954   1_545  S
Co47        O552   2.076   1_545  S
Co47        O304   2.024       .  S
Co47       O1609   2.063   1_445  S
Co48        O288   2.018       .  S
Co48        O823   1.993       .  S
Co48        O309   2.079       .  S
O49        Co565   2.022       .  S
O49       Co1346   2.104       .  S
O49       Co1607   2.063       .  S
O49        Co308   2.079       .  S
C50         C202   1.451       .  S
C52        O1082   1.241       .  A
C52         C252   1.432       .  S
C53         O560   1.277       .  A
C53         O561   1.268       .  A
C53         C232   1.471       .  S
O54          C62   1.284       .  A
O54         Co74   2.077       .  S
O55          C63   1.244       .  A
O55         Co75   1.916       .  S
O56          C64   1.251       .  A
O56        Co336   1.965   1_554  S
O57          C65   1.247       .  A
O57        Co337   1.941       .  S
O58          C64   1.270       .  A
O58         Co75   1.996       .  S
O59          C65   1.245       .  A
O59         Co74   1.946       .  S
O60          C63   1.256       .  A
O60         Co77   1.993       .  S
O61          C62   1.281       .  A
O61         Co76   2.016       .  S
C63         C195   1.437       .  S
C64         C165   1.452       .  S
C65         C205   1.442       .  S
O66          C79   1.258       .  A
O66         Co74   1.960       .  S
O67          C80   1.267       .  A
O67         Co75   1.960       .  S
O68          C81   1.243       .  A
O68         Co76   1.965       .  S
O69          C82   1.257       .  A
O69         Co77   1.980       .  S
O70          C82   1.287       .  A
O70         Co75   2.095       .  S
O71          C81   1.254       .  A
O71         Co74   1.994       .  S
O72          C79   1.251       .  A
O72        Co337   1.933       .  S
O73         C340   1.272       .  A
O73         Co76   1.991       .  S
Co74         O78   2.199       .  S
Co75        O338   2.064       .  S
Co76        O316   1.965       .  S
Co76         O78   1.989       .  S
Co77        O317   1.941   1_554  S
Co77        O332   1.933   1_554  S
Co77        O338   2.074       .  S
O78        Co335   2.064       .  S
O78        Co337   2.074       .  S
C79         C172   1.461       .  S
C80         O333   1.272       .  A
C80         C215   1.454       .  S
C81         C182   1.459       .  S
O83          C91   1.274       .  A
O83       Co1143   1.996   1_455  S
O84          C92   1.264       .  A
O84       Co1144   1.968       .  S
O85          C93   1.260       .  A
O85        Co105   1.935       .  S
O86          C94   1.278       .  A
O86        Co106   2.062       .  S
O87          C93   1.265       .  A
O87        Co104   1.990   1_455  S
O88          C94   1.261       .  A
O88        Co103   1.994       .  S
O89          C92   1.262       .  A
O89        Co106   1.984       .  S
O90          C91   1.266       .  A
O90        Co105   1.929       .  S
C91         C185   1.459       .  S
C92         C245   1.470       .  S
C93         C152   1.447       .  S
O95         C108   1.270       .  A
O95        Co103   2.019       .  S
O96         C109   1.275       .  A
O96        Co104   2.052   1_455  S
O97         C110   1.254       .  A
O97        Co105   1.930       .  S
O98         C111   1.272       .  A
O98        Co106   1.905       .  S
O99         C111   1.286       .  A
O99       Co1144   2.033       .  S
O100       C1150   1.263       .  A
O100       Co103   1.967       .  S
O101        C108   1.249       .  A
O101       Co106   1.936       .  S
O102        C109   1.271       .  A
O102       Co105   2.027       .  S
Co103      O1123   1.996       .  S
Co103       O107   2.080       .  S
Co104      O1124   1.968       .  S
Co104      O1139   2.033       .  S
Co104      O1147   2.097       .  S
Co105      O1147   1.991   1_455  S
Co106       O107   1.921       .  S
O107      Co1144   2.097       .  S
O107      Co1145   1.991       .  S
C108        C142   1.443       .  S
C110       O1140   1.263       .  A
C110        C255   1.446       .  S
C111        C192   1.449       .  S
O112        C120   1.288       .  A
O112       Co652   2.090       .  S
O113        C121   1.247       .  A
O113       Co653   1.958   1_545  S
O114        C122   1.270       .  A
O114       Co134   1.961       .  S
O115        C123   1.258       .  A
O115       Co135   1.956       .  S
O116        C122   1.286       .  A
O116       Co133   2.014       .  S
O117        C123   1.260       .  A
O117       Co132   1.975       .  S
O118        C121   1.258       .  A
O118       Co135   2.008       .  S
O119        C120   1.269       .  A
O119       Co134   1.993       .  S
C121        C235   1.465       .  S
C122        C162   1.471       .  S
C123        C145   1.457       .  S
O124        C137   1.280       .  A
O124       Co132   1.910       .  S
O125        C138   1.263       .  A
O125       Co133   1.971       .  S
O126        C139   1.268       .  A
O126       Co134   2.046       .  S
O127        C140   1.284       .  A
O127       Co135   2.057       .  S
O128        C140   1.291       .  A
O128       Co653   2.004   1_545  S
O129        C139   1.248       .  A
O129       Co652   1.960       .  S
O130        C137   1.280       .  A
O130       Co135   2.006       .  S
O131        C138   1.264       .  A
O131       Co134   1.974       .  S
Co132       O632   2.090   1_545  S
Co132       O649   1.960   1_545  S
Co132       O656   1.919   1_545  S
Co133       O633   1.958       .  S
Co133       O648   2.004       .  S
Co133       O136   1.973       .  S
Co134       O136   2.038       .  S
Co135       O656   2.108   1_545  S
O136       Co652   1.919       .  S
O136       Co655   2.108       .  S
C137        C175   1.442       .  S
C138        C155   1.463       .  S
C139        C225   1.476       .  S
C141        C142   1.402       .  A
C141        C146   1.394       .  A
C141        F148   1.358       .  S
C142        C143   1.400       .  A
C143        C144   1.387       .  A
C143        F150   1.359       .  S
C144        C145   1.407       .  A
C144        F149   1.358       .  S
C145        C146   1.402       .  A
C146        F147   1.358       .  S
C151        C152   1.407       .  A
C151        C156   1.396       .  A
C151        F158   1.357       .  S
C152        C153   1.392       .  A
C153        C154   1.388       .  A
C153        F160   1.357       .  S
C154        C155   1.410       .  A
C154        F159   1.359       .  S
C155        C156   1.399       .  A
C156        F157   1.358       .  S
C161        C162   1.404       .  A
C161        C166   1.395       .  A
C161        F168   1.358       .  S
C162        C163   1.413       .  A
C163        C164   1.392       .  A
C163        F170   1.358       .  S
C164        C165   1.397       .  A
C164        F169   1.358       .  S
C165        C166   1.404       .  A
C166        F167   1.357       .  S
C171        C172   1.415       .  A
C171        C176   1.383       .  A
C171        F178   1.359       .  S
C172        C173   1.400       .  A
C173        C174   1.388       .  A
C173        F180   1.358       .  S
C174        C175   1.409       .  A
C174        F179   1.359       .  S
C175        C176   1.388       .  A
C176        F177   1.356       .  S
C181        C182   1.406       .  A
C181        C186   1.392       .  A
C181        F188   1.358       .  S
C182        C183   1.404       .  A
C183        C184   1.383       .  A
C183        F190   1.359       .  S
C184        C185   1.405       .  A
C184        F189   1.359       .  S
C185        C186   1.404       .  A
C186        F187   1.358       .  S
C191        C192   1.401       .  A
C191        C196   1.391       .  A
C191        F198   1.358       .  S
C192        C193   1.403       .  A
C193        C194   1.387       .  A
C193        F200   1.359       .  S
C194        C195   1.399       .  A
C194        F199   1.359       .  S
C195        C196   1.401       .  A
C196        F197   1.358       .  S
C201        C202   1.399       .  A
C201        C206   1.389       .  A
C201        F468   1.358       .  S
C202        C203   1.406       .  A
C203        C204   1.381       .  A
C203        F210   1.359       .  S
C204        C205   1.393       .  A
C204        F209   1.355       .  S
C205        C206   1.406       .  A
C206        F467   1.358       .  S
F207        C466   1.358       .  S
F208        C461   1.358       .  S
C211        C212   1.397       .  A
C211        C216   1.391       .  A
C211        F218   1.356       .  S
C212        C213   1.398       .  A
C213        C214   1.384       .  A
C213        F220   1.359       .  S
C214        C215   1.405       .  A
C214        F219   1.359       .  S
C215        C216   1.407       .  A
C216        F217   1.358       .  S
C221        C222   1.411       .  A
C221        C226   1.402       .  A
C221        F228   1.357       .  S
C222        C223   1.413       .  A
C223        C224   1.403       .  A
C223        F750   1.358       .  S
C224        C225   1.401       .  A
C224        F229   1.355       .  S
C225        C226   1.406       .  A
C226        F227   1.357       .  S
F230        C743   1.358       .  S
C231        C232   1.398       .  A
C231        C236   1.394       .  A
C231        F238   1.353       .  S
C232        C233   1.410       .  A
C233        C234   1.405       .  A
C233        F240   1.358       .  S
C234        C235   1.404       .  A
C234        F239   1.358       .  S
C235        C236   1.403       .  A
C236        F237   1.357       .  S
C241        C242   1.408       .  A
C241        C246   1.380       .  A
C241        F248   1.359       .  S
C242        C243   1.410       .  A
C243        C244   1.404       .  A
C243        F250   1.358       .  S
C244        C245   1.407       .  A
C244        F249   1.357       .  S
C245        C246   1.404       .  A
C246        F247   1.359       .  S
C251        C256   1.387       .  A
C251       C1292   1.401       .  A
C251        F258   1.357       .  S
C252        C253   1.394       .  A
C252       C1291   1.401       .  A
C253        C254   1.384       .  A
C253        F260   1.359       .  S
C254        C255   1.407       .  A
C254        F259   1.359       .  S
C255       C1296   1.398       .  A
C256       C1295   1.398       .  A
C256        F257   1.358       .  S
C261        C262   1.545       .  S
C261        C267   1.551       .  S
C261        C265   1.549       .  S
C261        C380   1.575       .  S
C262        H269   1.086       .  S
C262        C263   1.377       .  D
C263        C264   1.580       .  S
C263        C322   1.531       .  S
C264        C268   1.578       .  S
C264        C266   1.564       .  S
C264        H270   1.110       .  S
C265        H271   1.086       .  S
C265        C266   1.388       .  D
C266        C296   1.530       .  S
C267        H272   1.086       .  S
C267        C268   1.364       .  D
C268        C354   1.526       .  S
C273        C274   1.565       .  S
C273        C279   1.544       .  S
C273        C277   1.529       .  S
C273        C400   1.570       .  S
C274        H281   1.085       .  S
C274        C275   1.386       .  D
C275        C276   1.570       .  S
C275        C369   1.542       .  S
C276        C280   1.577       .  S
C276        C278   1.589       .  S
C276        H282   1.110       .  S
C277        H283   1.086       .  S
C277        C278   1.365       .  D
C278        C311   1.522       .  S
C279        H284   1.077       .  S
C279        C280   1.377       .  D
C280        C342   1.532       .  S
O285        C293   1.278       .  A
O285      Co1865   2.004   1_455  S
O286        C294   1.274       .  A
O286      Co1346   2.016       .  S
O287       Co827   1.954   1_556  S
O288        C296   1.281       .  A
O289        C295   1.244       .  A
O289       Co306   2.022   1_455  S
O290        C296   1.280       .  A
O290       Co825   2.042       .  S
O291        C294   1.264       .  A
O291       Co308   1.949       .  S
O292        C293   1.303       .  A
O292       Co827   2.076   1_556  S
C293        C482   1.497       .  S
C294        C502   1.475       .  S
C295        C472   1.439       .  S
O297        C310   1.245       .  A
O297       Co305   1.920       .  S
O298        C311   1.291       .  A
O298       Co826   2.033   1_455  S
O299        C312   1.231       .  A
O299       Co307   1.956   1_556  S
O300        C833   1.277       .  A
O300       Co308   2.015       .  S
O301        C833   1.268       .  A
O301      Co1346   1.965       .  S
O302       C1352   1.241       .  A
O302       Co305   1.960       .  S
O303        C310   1.252   1_565  A
O303       Co568   1.993       .  S
O304        C311   1.287       .  A
Co305      O1845   2.004   1_545  S
Co305       O810   2.042   1_545  S
Co305       O829   2.022   1_545  S
Co306      O1326   2.016       .  S
Co306       O818   2.033   1_655  S
Co306      O1341   1.965       .  S
Co306      O1089   2.104       .  S
Co307       O807   1.954   1_544  S
Co307       O812   2.076   1_544  S
Co307      O1869   2.063   1_444  S
Co308       O563   1.993       .  S
O309       Co825   2.022       .  S
O309      Co1086   2.104   1_556  S
O309      Co1867   2.063   1_556  S
C310        C462   1.451       .  S
C312       O1342   1.241       .  A
C312        C512   1.432       .  S
C313        O820   1.277       .  A
C313        O821   1.268       .  A
C313        C492   1.471       .  S
O314        C322   1.284       .  A
O314       Co334   2.077       .  S
O315        C323   1.244       .  A
O315       Co335   1.916       .  S
O316        C324   1.251       .  A
O317        C325   1.247       .  A
O318        C324   1.270       .  A
O318       Co335   1.996       .  S
O319        C325   1.245       .  A
O319       Co334   1.946       .  S
O320        C323   1.256       .  A
O320       Co337   1.993       .  S
O321        C322   1.281       .  A
O321       Co336   2.016       .  S
C323        C455   1.437       .  S
C324        C425   1.452       .  S
C325        C465   1.442       .  S
O326        C339   1.258       .  A
O326       Co334   1.959       .  S
O327        C340   1.266       .  A
O327       Co335   1.960       .  S
O328        C341   1.243       .  A
O328       Co336   1.965       .  S
O329        C342   1.257       .  A
O329       Co337   1.980       .  S
O330        C342   1.287       .  A
O330       Co335   2.095       .  S
O331        C341   1.254       .  A
O331       Co334   1.994       .  S
O332        C339   1.251       .  A
O333       Co336   1.991   1_554  S
Co334       O338   2.199   1_556  S
Co336       O338   1.989   1_556  S
C339        C432   1.461       .  S
C340        C475   1.454       .  S
C341        C442   1.459       .  S
O343        C351   1.274       .  A
O343      Co1403   1.996   1_455  S
O344        C352   1.264       .  A
O344      Co1404   1.968       .  S
O345        C353   1.260       .  A
O345       Co365   1.935       .  S
O346        C354   1.278       .  A
O346       Co366   2.062       .  S
O347        C353   1.265       .  A
O347       Co364   1.990   1_455  S
O348        C354   1.261       .  A
O348       Co363   1.994       .  S
O349        C352   1.262       .  A
O349       Co366   1.984       .  S
O350        C351   1.266       .  A
O350       Co365   1.929       .  S
C351        C445   1.459       .  S
C352        C505   1.470       .  S
C353        C412   1.447       .  S
O355        C368   1.270       .  A
O355       Co363   2.019       .  S
O356        C369   1.275       .  A
O356       Co364   2.052   1_455  S
O357        C370   1.254       .  A
O357       Co365   1.930       .  S
O358        C371   1.272       .  A
O358       Co366   1.905       .  S
O359        C371   1.286       .  A
O359      Co1404   2.033       .  S
O360       C1410   1.263       .  A
O360       Co363   1.967       .  S
O361        C368   1.249       .  A
O361       Co366   1.936       .  S
O362        C369   1.271       .  A
O362       Co365   2.027       .  S
Co363      O1383   1.996       .  S
Co363       O367   2.080       .  S
Co364      O1384   1.968       .  S
Co364      O1399   2.033       .  S
Co364      O1407   2.097       .  S
Co365      O1407   1.991   1_455  S
Co366       O367   1.921       .  S
O367      Co1404   2.097       .  S
O367      Co1405   1.991       .  S
C368        C402   1.443       .  S
C370       O1400   1.263       .  A
C370        C515   1.446       .  S
C371        C452   1.449       .  S
O372        C380   1.288       .  A
O372       Co912   2.090       .  S
O373        C381   1.247       .  A
O373       Co913   1.958   1_545  S
O374        C382   1.270       .  A
O374       Co394   1.961       .  S
O375        C383   1.258       .  A
O375       Co395   1.956       .  S
O376        C382   1.286       .  A
O376       Co393   2.014       .  S
O377        C383   1.260       .  A
O377       Co392   1.975       .  S
O378        C381   1.258       .  A
O378       Co395   2.008       .  S
O379        C380   1.269       .  A
O379       Co394   1.993       .  S
C381        C495   1.465       .  S
C382        C422   1.471       .  S
C383        C405   1.457       .  S
O384        C397   1.280       .  A
O384       Co392   1.910       .  S
O385        C398   1.263       .  A
O385       Co393   1.971       .  S
O386        C399   1.268       .  A
O386       Co394   2.046       .  S
O387        C400   1.284       .  A
O387       Co395   2.057       .  S
O388        C400   1.291       .  A
O388       Co913   2.004   1_545  S
O389        C399   1.248       .  A
O389       Co912   1.960       .  S
O390        C397   1.280       .  A
O390       Co395   2.006       .  S
O391        C398   1.264       .  A
O391       Co394   1.974       .  S
Co392       O892   2.090   1_545  S
Co392       O909   1.960   1_545  S
Co392       O916   1.919   1_545  S
Co393       O893   1.958       .  S
Co393       O908   2.004       .  S
Co393       O396   1.973       .  S
Co394       O396   2.038       .  S
Co395       O916   2.108   1_545  S
O396       Co912   1.919       .  S
O396       Co915   2.108       .  S
C397        C435   1.442       .  S
C398        C415   1.463       .  S
C399        C485   1.476       .  S
C401        C402   1.402       .  A
C401        C406   1.394       .  A
C401        F408   1.358       .  S
C402        C403   1.400       .  A
C403        C404   1.387       .  A
C403        F410   1.359       .  S
C404        C405   1.407       .  A
C404        F409   1.358       .  S
C405        C406   1.402       .  A
C406        F407   1.358       .  S
C411        C412   1.407       .  A
C411        C416   1.396       .  A
C411        F418   1.357       .  S
C412        C413   1.392       .  A
C413        C414   1.388       .  A
C413        F420   1.357       .  S
C414        C415   1.410       .  A
C414        F419   1.359       .  S
C415        C416   1.399       .  A
C416        F417   1.358       .  S
C421        C422   1.404       .  A
C421        C426   1.395       .  A
C421        F428   1.358       .  S
C422        C423   1.413       .  A
C423        C424   1.392       .  A
C423        F430   1.358       .  S
C424        C425   1.397       .  A
C424        F429   1.358       .  S
C425        C426   1.404       .  A
C426        F427   1.357       .  S
C431        C432   1.415       .  A
C431        C436   1.383       .  A
C431        F438   1.359       .  S
C432        C433   1.400       .  A
C433        C434   1.388       .  A
C433        F440   1.358       .  S
C434        C435   1.409       .  A
C434        F439   1.359       .  S
C435        C436   1.388       .  A
C436        F437   1.356       .  S
C441        C442   1.406       .  A
C441        C446   1.392       .  A
C441        F448   1.358       .  S
C442        C443   1.404       .  A
C443        C444   1.383       .  A
C443        F450   1.359       .  S
C444        C445   1.405       .  A
C444        F449   1.359       .  S
C445        C446   1.404       .  A
C446        F447   1.358       .  S
C451        C452   1.401       .  A
C451        C456   1.391       .  A
C451        F458   1.358       .  S
C452        C453   1.403       .  A
C453        C454   1.387       .  A
C453        F460   1.359       .  S
C454        C455   1.399       .  A
C454        F459   1.359       .  S
C455        C456   1.401       .  A
C456        F457   1.358       .  S
C461        C462   1.399       .  A
C461        C466   1.389       .  A
C462        C463   1.406       .  A
C463        C464   1.381       .  A
C463        F470   1.359       .  S
C464        C465   1.393       .  A
C464        F469   1.355       .  S
C465        C466   1.406       .  A
C471        C472   1.397       .  A
C471        C476   1.391       .  A
C471        F478   1.356       .  S
C472        C473   1.398       .  A
C473        C474   1.384       .  A
C473        F480   1.359       .  S
C474        C475   1.405       .  A
C474        F479   1.359       .  S
C475        C476   1.407       .  A
C476        F477   1.358       .  S
C481        C482   1.411       .  A
C481        C486   1.402       .  A
C481        F488   1.357       .  S
C482        C483   1.413       .  A
C483        C484   1.403       .  A
C483       F1010   1.358       .  S
C484        C485   1.401       .  A
C484        F489   1.355       .  S
C485        C486   1.406       .  A
C486        F487   1.357       .  S
F490       C1003   1.358       .  S
C491        C492   1.398       .  A
C491        C496   1.394       .  A
C491        F498   1.353       .  S
C492        C493   1.410       .  A
C493        C494   1.405       .  A
C493        F500   1.358       .  S
C494        C495   1.404       .  A
C494        F499   1.358       .  S
C495        C496   1.403       .  A
C496        F497   1.357       .  S
C501        C502   1.408       .  A
C501        C506   1.380       .  A
C501        F508   1.359       .  S
C502        C503   1.410       .  A
C503        C504   1.404       .  A
C503        F510   1.358       .  S
C504        C505   1.407       .  A
C504        F509   1.357       .  S
C505        C506   1.404       .  A
C506        F507   1.359       .  S
C511       C1552   1.401       .  A
C511        C516   1.387       .  A
C511        F518   1.357       .  S
C512       C1551   1.401       .  A
C512        C513   1.394       .  A
C513        C514   1.384       .  A
C513        F520   1.359       .  S
C514        C515   1.407       .  A
C514        F519   1.359       .  S
C515       C1556   1.398       .  A
C516       C1555   1.398       .  A
C516        F517   1.358       .  S
C521        C522   1.545       .  S
C521        C527   1.551       .  S
C521        C525   1.549       .  S
C521        C640   1.575       .  S
C522        H529   1.086       .  S
C522        C523   1.377       .  D
C523        C524   1.580       .  S
C523        C582   1.531       .  S
C524        C528   1.578       .  S
C524        C526   1.564       .  S
C524        H530   1.110       .  S
C525        H531   1.086       .  S
C525        C526   1.388       .  D
C526        C556   1.530       .  S
C527        H532   1.086       .  S
C527        C528   1.364       .  D
C528        C614   1.526       .  S
C533        C534   1.565       .  S
C533        C539   1.544       .  S
C533        C537   1.529       .  S
C533        C660   1.570       .  S
C534        H541   1.085       .  S
C534        C535   1.386       .  D
C535        C536   1.570       .  S
C535        C629   1.541       .  S
C536        C540   1.577       .  S
C536        C538   1.589       .  S
C536        H542   1.110       .  S
C537        H543   1.086       .  S
C537        C538   1.365       .  D
C538        C571   1.522       .  S
C539        H544   1.077       .  S
C539        C540   1.377       .  D
C540        C602   1.532       .  S
O545        C553   1.278       .  A
O545      Co1085   2.004   1_465  S
O546        C554   1.274       .  A
O546      Co1606   2.016   1_565  S
O547        C815   1.248       .  A
O548        C556   1.281       .  A
O548       Co828   2.018       .  S
O549        C555   1.244       .  A
O549       Co566   2.022   1_465  S
O550        C556   1.280       .  A
O551        C554   1.264       .  A
O551       Co568   1.949   1_554  S
O552        C553   1.303       .  A
C553        C742   1.497       .  S
C554        C762   1.475       .  S
C555        O807   1.248   1_554  A
C555        C732   1.439       .  S
O557        C570   1.245       .  A
O557       Co565   1.920       .  S
O558        C571   1.291       .  A
O559        C572   1.231       .  A
O559       Co567   1.956       .  S
O560       Co568   2.015   1_544  S
O561      Co1606   1.965       .  S
O562       C1612   1.241       .  A
O562       Co565   1.960       .  S
O563        C570   1.252       .  A
O564        C571   1.287       .  A
O564       Co827   2.024       .  S
Co565      O1065   2.004       .  S
Co566      O1586   2.016   1_545  S
Co566      O1601   1.965       .  S
Co566      O1869   2.104   1_544  S
Co567       O824   2.024       .  S
Co567      O1089   2.063   1_455  S
Co568       O808   2.018       .  S
Co568       O829   2.079       .  S
O569      Co1866   2.104   1_565  S
O569      Co1087   2.063   1_565  S
O569       Co828   2.079       .  S
C570        C722   1.451       .  S
C572       O1602   1.241       .  A
C572        C772   1.432       .  S
C573        C752   1.471       .  S
O574        C582   1.284       .  A
O574       Co594   2.077       .  S
O575        C583   1.244       .  A
O575       Co595   1.916       .  S
O576        C584   1.251       .  A
O576       Co856   1.965   1_554  S
O577        C585   1.247       .  A
O577       Co857   1.941       .  S
O578        C584   1.270       .  A
O578       Co595   1.996       .  S
O579        C585   1.245       .  A
O579       Co594   1.946       .  S
O580        C583   1.256       .  A
O580       Co597   1.993       .  S
O581        C582   1.281       .  A
O581       Co596   2.016       .  S
C583        C715   1.437       .  S
C584        C685   1.452       .  S
C585        C725   1.442       .  S
O586        C599   1.258       .  A
O586       Co594   1.959       .  S
O587        C600   1.267       .  A
O587       Co595   1.960       .  S
O588        C601   1.243       .  A
O588       Co596   1.965       .  S
O589        C602   1.257       .  A
O589       Co597   1.980       .  S
O590        C602   1.287       .  A
O590       Co595   2.095       .  S
O591        C601   1.254       .  A
O591       Co594   1.994       .  S
O592        C599   1.251       .  A
O592       Co857   1.933       .  S
O593        C860   1.272       .  A
O593       Co596   1.991       .  S
Co594       O598   2.199       .  S
Co595       O858   2.064       .  S
Co596       O836   1.965       .  S
Co596       O598   1.989       .  S
Co597       O837   1.941   1_554  S
Co597       O852   1.933   1_554  S
Co597       O858   2.074       .  S
O598       Co855   2.064       .  S
O598       Co857   2.074       .  S
C599        C692   1.461       .  S
C600        O853   1.272       .  A
C600        C735   1.454       .  S
C601        C702   1.459       .  S
O603        C611   1.274       .  A
O603      Co1663   1.996   1_455  S
O604        C612   1.264       .  A
O604      Co1664   1.968       .  S
O605        C613   1.260       .  A
O605       Co625   1.935       .  S
O606        C614   1.278       .  A
O606       Co626   2.062       .  S
O607        C613   1.265       .  A
O607       Co624   1.990   1_455  S
O608        C614   1.261       .  A
O608       Co623   1.994       .  S
O609        C612   1.262       .  A
O609       Co626   1.984       .  S
O610        C611   1.266       .  A
O610       Co625   1.929       .  S
C611        C705   1.459       .  S
C612        C765   1.470       .  S
C613        C672   1.447       .  S
O615        C628   1.270       .  A
O615       Co623   2.018       .  S
O616        C629   1.275       .  A
O616       Co624   2.052   1_455  S
O617        C630   1.254       .  A
O617       Co625   1.930       .  S
O618        C631   1.272       .  A
O618       Co626   1.905       .  S
O619        C631   1.286       .  A
O619      Co1664   2.034       .  S
O620       C1670   1.263       .  A
O620       Co623   1.967       .  S
O621        C628   1.249       .  A
O621       Co626   1.936       .  S
O622        C629   1.271       .  A
O622       Co625   2.027       .  S
Co623      O1643   1.996       .  S
Co623       O627   2.080       .  S
Co624      O1644   1.968       .  S
Co624      O1659   2.034       .  S
Co624      O1667   2.097       .  S
Co625      O1667   1.991   1_455  S
Co626       O627   1.921       .  S
O627      Co1664   2.097       .  S
O627      Co1665   1.991       .  S
C628        C662   1.443       .  S
C630       O1660   1.263       .  A
C630        C775   1.446       .  S
C631        C712   1.450       .  S
O632        C640   1.288       .  A
O633        C641   1.247       .  A
O634        C642   1.270       .  A
O634       Co654   1.961       .  S
O635        C643   1.258       .  A
O635       Co655   1.956       .  S
O636        C642   1.286       .  A
O636       Co653   2.014       .  S
O637        C643   1.260       .  A
O637       Co652   1.975       .  S
O638        C641   1.258       .  A
O638       Co655   2.008       .  S
O639        C640   1.269       .  A
O639       Co654   1.993       .  S
C641        C755   1.465       .  S
C642        C682   1.471       .  S
C643        C665   1.457       .  S
O644        C657   1.281       .  A
O644       Co652   1.910       .  S
O645        C658   1.263       .  A
O645       Co653   1.971       .  S
O646        C659   1.268       .  A
O646       Co654   2.046       .  S
O647        C660   1.284       .  A
O647       Co655   2.057       .  S
O648        C660   1.291       .  A
O649        C659   1.248       .  A
O650        C657   1.280       .  A
O650       Co655   2.006       .  S
O651        C658   1.264       .  A
O651       Co654   1.974       .  S
Co653       O656   1.973       .  S
Co654       O656   2.038       .  S
C657        C695   1.442       .  S
C658        C675   1.463       .  S
C659        C745   1.476       .  S
C661        C662   1.402       .  A
C661        C666   1.394       .  A
C661        F668   1.358       .  S
C662        C663   1.400       .  A
C663        C664   1.387       .  A
C663        F670   1.359       .  S
C664        C665   1.407       .  A
C664        F669   1.358       .  S
C665        C666   1.402       .  A
C666        F667   1.358       .  S
C671        C672   1.407       .  A
C671        C676   1.396       .  A
C671        F678   1.357       .  S
C672        C673   1.392       .  A
C673        C674   1.388       .  A
C673        F680   1.357       .  S
C674        C675   1.410       .  A
C674        F679   1.359       .  S
C675        C676   1.399       .  A
C676        F677   1.358       .  S
C681        C682   1.404       .  A
C681        C686   1.395       .  A
C681        F688   1.358       .  S
C682        C683   1.413       .  A
C683        C684   1.392       .  A
C683        F690   1.358       .  S
C684        C685   1.397       .  A
C684        F689   1.358       .  S
C685        C686   1.404       .  A
C686        F687   1.357       .  S
C691        C692   1.415       .  A
C691        C696   1.383       .  A
C691        F698   1.359       .  S
C692        C693   1.400       .  A
C693        C694   1.388       .  A
C693        F700   1.358       .  S
C694        C695   1.409       .  A
C694        F699   1.359       .  S
C695        C696   1.388       .  A
C696        F697   1.356       .  S
C701        C702   1.406       .  A
C701        C706   1.392       .  A
C701        F708   1.358       .  S
C702        C703   1.404       .  A
C703        C704   1.383       .  A
C703        F710   1.359       .  S
C704        C705   1.405       .  A
C704        F709   1.359       .  S
C705        C706   1.404       .  A
C706        F707   1.358       .  S
C711        C712   1.401       .  A
C711        C716   1.391       .  A
C711        F718   1.358       .  S
C712        C713   1.403       .  A
C713        C714   1.387       .  A
C713        F720   1.359       .  S
C714        C715   1.399       .  A
C714        F719   1.359       .  S
C715        C716   1.401       .  A
C716        F717   1.358       .  S
C721        C722   1.399       .  A
C721        C726   1.389       .  A
C721        F988   1.358       .  S
C722        C723   1.406       .  A
C723        C724   1.381       .  A
C723        F730   1.359       .  S
C724        C725   1.393       .  A
C724        F729   1.355       .  S
C725        C726   1.406       .  A
C726        F987   1.358       .  S
F727        C986   1.358       .  S
F728        C981   1.358       .  S
C731        C732   1.397       .  A
C731        C736   1.391       .  A
C731        F738   1.356       .  S
C732        C733   1.398       .  A
C733        C734   1.384       .  A
C733        F740   1.359       .  S
C734        C735   1.405       .  A
C734        F739   1.359       .  S
C735        C736   1.407       .  A
C736        F737   1.358       .  S
C741        C742   1.411       .  A
C741        C746   1.402       .  A
C741        F748   1.357       .  S
C742        C743   1.413       .  A
C743        C744   1.403       .  A
C744        C745   1.401       .  A
C744        F749   1.355       .  S
C745        C746   1.406       .  A
C746        F747   1.357       .  S
C751        C752   1.398       .  A
C751        C756   1.394       .  A
C751        F758   1.353       .  S
C752        C753   1.410       .  A
C753        C754   1.405       .  A
C753        F760   1.358       .  S
C754        C755   1.404       .  A
C754        F759   1.358       .  S
C755        C756   1.403       .  A
C756        F757   1.357       .  S
C761        C762   1.408       .  A
C761        C766   1.380       .  A
C761        F768   1.359       .  S
C762        C763   1.410       .  A
C763        C764   1.404       .  A
C763        F770   1.358       .  S
C764        C765   1.407       .  A
C764        F769   1.357       .  S
C765        C766   1.404       .  A
C766        F767   1.359       .  S
C771       C1812   1.401       .  A
C771        C776   1.387       .  A
C771        F778   1.357       .  S
C772       C1811   1.401       .  A
C772        C773   1.394       .  A
C773        C774   1.384       .  A
C773        F780   1.359       .  S
C774        C775   1.407       .  A
C774        F779   1.359       .  S
C775       C1816   1.398       .  A
C776       C1815   1.398       .  A
C776        F777   1.358       .  S
C781        C782   1.545       .  S
C781        C787   1.551       .  S
C781        C785   1.549       .  S
C781        C900   1.575       .  S
C782        H789   1.086       .  S
C782        C783   1.377       .  D
C783        C784   1.580       .  S
C783        C842   1.531       .  S
C784        C788   1.578       .  S
C784        C786   1.564       .  S
C784        H790   1.110       .  S
C785        H791   1.086       .  S
C785        C786   1.388       .  D
C786        C816   1.530       .  S
C787        H792   1.086       .  S
C787        C788   1.364       .  D
C788        C874   1.526       .  S
C793        C794   1.564       .  S
C793        C799   1.544       .  S
C793        C797   1.529       .  S
C793        C920   1.570       .  S
C794        H801   1.085       .  S
C794        C795   1.386       .  D
C795        C796   1.570       .  S
C795        C889   1.541       .  S
C796        C800   1.577       .  S
C796        C798   1.589       .  S
C796        H802   1.110       .  S
C797        H803   1.086       .  S
C797        C798   1.365       .  D
C798        C831   1.522       .  S
C799        H804   1.077       .  S
C799        C800   1.377       .  D
C800        C862   1.532       .  S
O805        C813   1.278       .  A
O805      Co1345   2.004   1_465  S
O806        C814   1.274       .  A
O806      Co1866   2.016   1_565  S
O808        C816   1.281       .  A
O809        C815   1.244       .  A
O809       Co826   2.022   1_465  S
O810        C816   1.280       .  A
O811        C814   1.264       .  A
O811       Co828   1.949       .  S
O812        C813   1.303       .  A
C813       C1002   1.497       .  S
C814       C1022   1.475       .  S
C815        C992   1.439       .  S
O817        C830   1.245       .  A
O817       Co825   1.920       .  S
O818        C831   1.291       .  A
O819        C832   1.231       .  A
O819       Co827   1.956   1_556  S
O820       Co828   2.015   1_545  S
O821      Co1866   1.965       .  S
O822       C1872   1.241       .  A
O822       Co825   1.960       .  S
O823        C830   1.252       .  A
O824        C831   1.287       .  A
Co825      O1325   2.004       .  S
Co826      O1846   2.016   1_545  S
Co826      O1861   1.965       .  S
Co826      O1609   2.104   1_545  S
Co827      O1349   2.063   1_454  S
O829      Co1606   2.104   1_566  S
O829      Co1347   2.063   1_566  S
C830        C982   1.451       .  S
C832       O1862   1.241       .  A
C832       C1032   1.432       .  S
C833       C1012   1.471       .  S
O834        C842   1.284       .  A
O834       Co854   2.077       .  S
O835        C843   1.244       .  A
O835       Co855   1.916       .  S
O836        C844   1.251       .  A
O837        C845   1.247       .  A
O838        C844   1.270       .  A
O838       Co855   1.996       .  S
O839        C845   1.245       .  A
O839       Co854   1.946       .  S
O840        C843   1.256       .  A
O840       Co857   1.993       .  S
O841        C842   1.281       .  A
O841       Co856   2.016       .  S
C843        C975   1.437       .  S
C844        C945   1.452       .  S
C845        C985   1.442       .  S
O846        C859   1.258       .  A
O846       Co854   1.959       .  S
O847        C860   1.267       .  A
O847       Co855   1.960       .  S
O848        C861   1.243       .  A
O848       Co856   1.965       .  S
O849        C862   1.257       .  A
O849       Co857   1.980       .  S
O850        C862   1.287       .  A
O850       Co855   2.095       .  S
O851        C861   1.254       .  A
O851       Co854   1.994       .  S
O852        C859   1.251       .  A
O853       Co856   1.991   1_554  S
Co854       O858   2.199   1_556  S
Co856       O858   1.989   1_556  S
C859        C952   1.461       .  S
C860        C995   1.454       .  S
C861        C962   1.459       .  S
O863        C871   1.274       .  A
O863      Co1923   1.996   1_455  S
O864        C872   1.264       .  A
O864      Co1924   1.968       .  S
O865        C873   1.260       .  A
O865       Co885   1.935       .  S
O866        C874   1.278       .  A
O866       Co886   2.062       .  S
O867        C873   1.265       .  A
O867       Co884   1.990   1_455  S
O868        C874   1.261       .  A
O868       Co883   1.994       .  S
O869        C872   1.262       .  A
O869       Co886   1.984       .  S
O870        C871   1.266       .  A
O870       Co885   1.929       .  S
C871        C965   1.459       .  S
C872       C1025   1.470       .  S
C873        C932   1.447       .  S
O875        C888   1.270       .  A
O875       Co883   2.018       .  S
O876        C889   1.275       .  A
O876       Co884   2.052   1_455  S
O877        C890   1.254       .  A
O877       Co885   1.930       .  S
O878        C891   1.272       .  A
O878       Co886   1.905       .  S
O879        C891   1.286       .  A
O879      Co1924   2.034       .  S
O880       C1930   1.263       .  A
O880       Co883   1.967       .  S
O881        C888   1.250       .  A
O881       Co886   1.936       .  S
O882        C889   1.271       .  A
O882       Co885   2.027       .  S
Co883      O1903   1.996       .  S
Co883       O887   2.080       .  S
Co884      O1904   1.968       .  S
Co884      O1919   2.034       .  S
Co884      O1927   2.097       .  S
Co885      O1927   1.991   1_455  S
Co886       O887   1.921       .  S
O887      Co1924   2.097       .  S
O887      Co1925   1.991       .  S
C888        C922   1.443       .  S
C890       O1920   1.263       .  A
C890       C1035   1.446       .  S
C891        C972   1.450       .  S
O892        C900   1.288       .  A
O893        C901   1.247       .  A
O894        C902   1.270       .  A
O894       Co914   1.961       .  S
O895        C903   1.258       .  A
O895       Co915   1.956       .  S
O896        C902   1.286       .  A
O896       Co913   2.014       .  S
O897        C903   1.260       .  A
O897       Co912   1.975       .  S
O898        C901   1.258       .  A
O898       Co915   2.008       .  S
O899        C900   1.269       .  A
O899       Co914   1.993       .  S
C901       C1015   1.465       .  S
C902        C942   1.471       .  S
C903        C925   1.457       .  S
O904        C917   1.281       .  A
O904       Co912   1.910       .  S
O905        C918   1.263       .  A
O905       Co913   1.971       .  S
O906        C919   1.268       .  A
O906       Co914   2.046       .  S
O907        C920   1.284       .  A
O907       Co915   2.057       .  S
O908        C920   1.291       .  A
O909        C919   1.248       .  A
O910        C917   1.280       .  A
O910       Co915   2.006       .  S
O911        C918   1.264       .  A
O911       Co914   1.974       .  S
Co913       O916   1.973       .  S
Co914       O916   2.038       .  S
C917        C955   1.442       .  S
C918        C935   1.463       .  S
C919       C1005   1.476       .  S
C921        C922   1.402       .  A
C921        C926   1.394       .  A
C921        F928   1.358       .  S
C922        C923   1.400       .  A
C923        C924   1.387       .  A
C923        F930   1.359       .  S
C924        C925   1.407       .  A
C924        F929   1.358       .  S
C925        C926   1.402       .  A
C926        F927   1.358       .  S
C931        C932   1.407       .  A
C931        C936   1.396       .  A
C931        F938   1.357       .  S
C932        C933   1.392       .  A
C933        C934   1.388       .  A
C933        F940   1.357       .  S
C934        C935   1.410       .  A
C934        F939   1.359       .  S
C935        C936   1.399       .  A
C936        F937   1.358       .  S
C941        C942   1.404       .  A
C941        C946   1.395       .  A
C941        F948   1.358       .  S
C942        C943   1.413       .  A
C943        C944   1.392       .  A
C943        F950   1.358       .  S
C944        C945   1.397       .  A
C944        F949   1.358       .  S
C945        C946   1.404       .  A
C946        F947   1.357       .  S
C951        C952   1.415       .  A
C951        C956   1.383       .  A
C951        F958   1.359       .  S
C952        C953   1.400       .  A
C953        C954   1.388       .  A
C953        F960   1.358       .  S
C954        C955   1.409       .  A
C954        F959   1.359       .  S
C955        C956   1.388       .  A
C956        F957   1.356       .  S
C961        C962   1.406       .  A
C961        C966   1.392       .  A
C961        F968   1.358       .  S
C962        C963   1.404       .  A
C963        C964   1.383       .  A
C963        F970   1.359       .  S
C964        C965   1.405       .  A
C964        F969   1.359       .  S
C965        C966   1.404       .  A
C966        F967   1.358       .  S
C971        C972   1.401       .  A
C971        C976   1.391       .  A
C971        F978   1.358       .  S
C972        C973   1.403       .  A
C973        C974   1.387       .  A
C973        F980   1.359       .  S
C974        C975   1.399       .  A
C974        F979   1.359       .  S
C975        C976   1.401       .  A
C976        F977   1.358       .  S
C981        C982   1.399       .  A
C981        C986   1.389       .  A
C982        C983   1.406       .  A
C983        C984   1.381       .  A
C983        F990   1.359       .  S
C984        C985   1.393       .  A
C984        F989   1.355       .  S
C985        C986   1.406       .  A
C991        C992   1.397       .  A
C991        C996   1.391       .  A
C991        F998   1.356       .  S
C992        C993   1.398       .  A
C993        C994   1.384       .  A
C993       F1000   1.359       .  S
C994        C995   1.405       .  A
C994        F999   1.359       .  S
C995        C996   1.407       .  A
C996        F997   1.358       .  S
C1001      C1002   1.411       .  A
C1001      C1006   1.402       .  A
C1001      F1008   1.357       .  S
C1002      C1003   1.413       .  A
C1003      C1004   1.403       .  A
C1004      C1005   1.401       .  A
C1004      F1009   1.355       .  S
C1005      C1006   1.406       .  A
C1006      F1007   1.357       .  S
C1011      C1012   1.398       .  A
C1011      C1016   1.394       .  A
C1011      F1018   1.353       .  S
C1012      C1013   1.410       .  A
C1013      C1014   1.405       .  A
C1013      F1020   1.358       .  S
C1014      C1015   1.404       .  A
C1014      F1019   1.358       .  S
C1015      C1016   1.403       .  A
C1016      F1017   1.357       .  S
C1021      C1022   1.408       .  A
C1021      C1026   1.380       .  A
C1021      F1028   1.359       .  S
C1022      C1023   1.410       .  A
C1023      C1024   1.404       .  A
C1023      F1030   1.358       .  S
C1024      C1025   1.407       .  A
C1024      F1029   1.357       .  S
C1025      C1026   1.404       .  A
C1026      F1027   1.359       .  S
C1031      C2072   1.401       .  A
C1031      C1036   1.387       .  A
C1031      F1038   1.357       .  S
C1032      C2071   1.401       .  A
C1032      C1033   1.394       .  A
C1033      C1034   1.384       .  A
C1033      F1040   1.359       .  S
C1034      C1035   1.407       .  A
C1034      F1039   1.359       .  S
C1035      C2076   1.398       .  A
C1036      C2075   1.398       .  A
C1036      F1037   1.358       .  S
C1041      C1042   1.545       .  S
C1041      C1047   1.551       .  S
C1041      C1045   1.549       .  S
C1041      C1160   1.575       .  S
C1042      H1049   1.086       .  S
C1042      C1043   1.377       .  D
C1043      C1044   1.580       .  S
C1043      C1102   1.531       .  S
C1044      C1048   1.578       .  S
C1044      C1046   1.564       .  S
C1044      H1050   1.110       .  S
C1045      H1051   1.086       .  S
C1045      C1046   1.388       .  D
C1046      C1076   1.530       .  S
C1047      H1052   1.086       .  S
C1047      C1048   1.364       .  D
C1048      C1134   1.526       .  S
C1053      C1054   1.565       .  S
C1053      C1059   1.544       .  S
C1053      C1057   1.529       .  S
C1053      C1180   1.570       .  S
C1054      H1061   1.085       .  S
C1054      C1055   1.386       .  D
C1055      C1056   1.570       .  S
C1055      C1149   1.542       .  S
C1056      C1060   1.577       .  S
C1056      C1058   1.589       .  S
C1056      H1062   1.110       .  S
C1057      H1063   1.086       .  S
C1057      C1058   1.365       .  D
C1058      C1091   1.522       .  S
C1059      H1064   1.077       .  S
C1059      C1060   1.377       .  D
C1060      C1122   1.532       .  S
O1065      C1073   1.278       .  A
O1066      C1074   1.274       .  A
O1067      C1335   1.248       .  A
O1067     Co1607   1.954       .  S
O1068      C1076   1.281       .  A
O1068     Co1348   2.018       .  S
O1069      C1075   1.244       .  A
O1069     Co1086   2.022       .  S
O1070      C1076   1.280       .  A
O1070     Co1605   2.042       .  S
O1071      C1074   1.264       .  A
O1071     Co1088   1.949   1_554  S
O1072      C1073   1.303       .  A
O1072     Co1607   2.076       .  S
C1073      C1262   1.497       .  S
C1074      C1282   1.475       .  S
C1075      O1327   1.248   1_554  A
C1075      C1252   1.439       .  S
O1077      C1090   1.245       .  A
O1077     Co1085   1.920       .  S
O1078      C1091   1.291       .  A
O1078     Co1606   2.033       .  S
O1079      C1092   1.231       .  A
O1079     Co1087   1.956       .  S
O1080      C1613   1.277       .  A
O1080     Co1088   2.015   1_554  S
O1081      C1613   1.268       .  A
O1082     Co1085   1.960   1_455  S
O1083      C1090   1.252   1_565  A
O1083     Co1868   1.993       .  S
O1084      C1091   1.287       .  A
O1084     Co1347   2.024       .  S
Co1085     O1590   2.042   1_545  S
Co1085     O1609   2.022   1_545  S
Co1086     O1598   2.033       .  S
Co1087     O1587   1.954   1_545  S
Co1087     O1592   2.076   1_545  S
Co1087     O1344   2.024       .  S
Co1088     O1328   2.018       .  S
Co1088     O1863   1.993       .  S
Co1088     O1349   2.079       .  S
O1089     Co1605   2.022       .  S
O1089     Co1348   2.079       .  S
C1090      C1242   1.451       .  S
C1092      C1292   1.432       .  S
C1093      O1600   1.277       .  A
C1093      O1601   1.268       .  A
C1093      C1272   1.471       .  S
O1094      C1102   1.284       .  A
O1094     Co1114   2.077       .  S
O1095      C1103   1.244       .  A
O1095     Co1115   1.916       .  S
O1096      C1104   1.251       .  A
O1096     Co1376   1.965   1_554  S
O1097      C1105   1.247       .  A
O1097     Co1377   1.941       .  S
O1098      C1104   1.270       .  A
O1098     Co1115   1.996       .  S
O1099      C1105   1.245       .  A
O1099     Co1114   1.946       .  S
O1100      C1103   1.256       .  A
O1100     Co1117   1.993       .  S
O1101      C1102   1.281       .  A
O1101     Co1116   2.016       .  S
C1103      C1235   1.437       .  S
C1104      C1205   1.452       .  S
C1105      C1245   1.442       .  S
O1106      C1119   1.258       .  A
O1106     Co1114   1.959       .  S
O1107      C1120   1.266       .  A
O1107     Co1115   1.960       .  S
O1108      C1121   1.243       .  A
O1108     Co1116   1.965       .  S
O1109      C1122   1.257       .  A
O1109     Co1117   1.980       .  S
O1110      C1122   1.287       .  A
O1110     Co1115   2.095       .  S
O1111      C1121   1.254       .  A
O1111     Co1114   1.994       .  S
O1112      C1119   1.251       .  A
O1112     Co1377   1.933       .  S
O1113      C1380   1.272       .  A
O1113     Co1116   1.991       .  S
Co1114     O1118   2.199       .  S
Co1115     O1378   2.064       .  S
Co1116     O1356   1.965       .  S
Co1116     O1118   1.989       .  S
Co1117     O1357   1.941   1_554  S
Co1117     O1372   1.933   1_554  S
Co1117     O1378   2.074       .  S
O1118     Co1375   2.064       .  S
O1118     Co1377   2.074       .  S
C1119      C1212   1.461       .  S
C1120      O1373   1.272       .  A
C1120      C1255   1.454       .  S
C1121      C1222   1.459       .  S
O1123      C1131   1.274       .  A
O1124      C1132   1.264       .  A
O1125      C1133   1.260       .  A
O1125     Co1145   1.935       .  S
O1126      C1134   1.278       .  A
O1126     Co1146   2.062       .  S
O1127      C1133   1.265       .  A
O1127     Co1144   1.990       .  S
O1128      C1134   1.261       .  A
O1128     Co1143   1.994       .  S
O1129      C1132   1.262       .  A
O1129     Co1146   1.984       .  S
O1130      C1131   1.266       .  A
O1130     Co1145   1.929       .  S
C1131      C1225   1.459       .  S
C1132      C1285   1.470       .  S
C1133      C1192   1.447       .  S
O1135      C1148   1.270       .  A
O1135     Co1143   2.019       .  S
O1136      C1149   1.275       .  A
O1136     Co1144   2.052       .  S
O1137      C1150   1.254       .  A
O1137     Co1145   1.930       .  S
O1138      C1151   1.272       .  A
O1138     Co1146   1.905       .  S
O1139      C1151   1.286       .  A
O1140     Co1143   1.967   1_455  S
O1141      C1148   1.249       .  A
O1141     Co1146   1.936       .  S
O1142      C1149   1.271       .  A
O1142     Co1145   2.027       .  S
Co1143     O1147   2.080       .  S
Co1146     O1147   1.921       .  S
C1148      C1182   1.443       .  S
C1150      C1295   1.446       .  S
C1151      C1232   1.449       .  S
O1152      C1160   1.288       .  A
O1152     Co1692   2.090       .  S
O1153      C1161   1.247       .  A
O1153     Co1693   1.958   1_545  S
O1154      C1162   1.270       .  A
O1154     Co1174   1.961       .  S
O1155      C1163   1.258       .  A
O1155     Co1175   1.956       .  S
O1156      C1162   1.286       .  A
O1156     Co1173   2.014       .  S
O1157      C1163   1.260       .  A
O1157     Co1172   1.975       .  S
O1158      C1161   1.258       .  A
O1158     Co1175   2.008       .  S
O1159      C1160   1.269       .  A
O1159     Co1174   1.993       .  S
C1161      C1275   1.465       .  S
C1162      C1202   1.471       .  S
C1163      C1185   1.457       .  S
O1164      C1177   1.280       .  A
O1164     Co1172   1.910       .  S
O1165      C1178   1.263       .  A
O1165     Co1173   1.971       .  S
O1166      C1179   1.268       .  A
O1166     Co1174   2.046       .  S
O1167      C1180   1.284       .  A
O1167     Co1175   2.057       .  S
O1168      C1180   1.291       .  A
O1168     Co1693   2.004   1_545  S
O1169      C1179   1.248       .  A
O1169     Co1692   1.960       .  S
O1170      C1177   1.280       .  A
O1170     Co1175   2.006       .  S
O1171      C1178   1.264       .  A
O1171     Co1174   1.974       .  S
Co1172     O1672   2.090   1_545  S
Co1172     O1689   1.960   1_545  S
Co1172     O1696   1.919   1_545  S
Co1173     O1673   1.958       .  S
Co1173     O1688   2.004       .  S
Co1173     O1176   1.973       .  S
Co1174     O1176   2.038       .  S
Co1175     O1696   2.108   1_545  S
O1176     Co1692   1.919       .  S
O1176     Co1695   2.108       .  S
C1177      C1215   1.442       .  S
C1178      C1195   1.463       .  S
C1179      C1265   1.476       .  S
C1181      C1182   1.402       .  A
C1181      C1186   1.394       .  A
C1181      F1188   1.358       .  S
C1182      C1183   1.400       .  A
C1183      C1184   1.387       .  A
C1183      F1190   1.359       .  S
C1184      C1185   1.407       .  A
C1184      F1189   1.358       .  S
C1185      C1186   1.402       .  A
C1186      F1187   1.358       .  S
C1191      C1192   1.407       .  A
C1191      C1196   1.396       .  A
C1191      F1198   1.357       .  S
C1192      C1193   1.392       .  A
C1193      C1194   1.388       .  A
C1193      F1200   1.357       .  S
C1194      C1195   1.410       .  A
C1194      F1199   1.359       .  S
C1195      C1196   1.399       .  A
C1196      F1197   1.358       .  S
C1201      C1202   1.404       .  A
C1201      C1206   1.395       .  A
C1201      F1208   1.358       .  S
C1202      C1203   1.413       .  A
C1203      C1204   1.392       .  A
C1203      F1210   1.358       .  S
C1204      C1205   1.397       .  A
C1204      F1209   1.358       .  S
C1205      C1206   1.404       .  A
C1206      F1207   1.357       .  S
C1211      C1212   1.415       .  A
C1211      C1216   1.383       .  A
C1211      F1218   1.359       .  S
C1212      C1213   1.400       .  A
C1213      C1214   1.388       .  A
C1213      F1220   1.358       .  S
C1214      C1215   1.409       .  A
C1214      F1219   1.359       .  S
C1215      C1216   1.388       .  A
C1216      F1217   1.356       .  S
C1221      C1222   1.406       .  A
C1221      C1226   1.392       .  A
C1221      F1228   1.358       .  S
C1222      C1223   1.404       .  A
C1223      C1224   1.383       .  A
C1223      F1230   1.359       .  S
C1224      C1225   1.405       .  A
C1224      F1229   1.359       .  S
C1225      C1226   1.404       .  A
C1226      F1227   1.358       .  S
C1231      C1232   1.401       .  A
C1231      C1236   1.391       .  A
C1231      F1238   1.358       .  S
C1232      C1233   1.403       .  A
C1233      C1234   1.387       .  A
C1233      F1240   1.359       .  S
C1234      C1235   1.399       .  A
C1234      F1239   1.359       .  S
C1235      C1236   1.401       .  A
C1236      F1237   1.358       .  S
C1241      C1242   1.399       .  A
C1241      C1246   1.389       .  A
C1241      F1508   1.358       .  S
C1242      C1243   1.406       .  A
C1243      C1244   1.381       .  A
C1243      F1250   1.359       .  S
C1244      C1245   1.393       .  A
C1244      F1249   1.355       .  S
C1245      C1246   1.406       .  A
C1246      F1507   1.358       .  S
F1247      C1506   1.358       .  S
F1248      C1501   1.358       .  S
C1251      C1252   1.397       .  A
C1251      C1256   1.391       .  A
C1251      F1258   1.356       .  S
C1252      C1253   1.398       .  A
C1253      C1254   1.384       .  A
C1253      F1260   1.359       .  S
C1254      C1255   1.405       .  A
C1254      F1259   1.359       .  S
C1255      C1256   1.407       .  A
C1256      F1257   1.358       .  S
C1261      C1262   1.411       .  A
C1261      C1266   1.402       .  A
C1261      F1268   1.357       .  S
C1262      C1263   1.413       .  A
C1263      C1264   1.403       .  A
C1263      F1790   1.358       .  S
C1264      C1265   1.401       .  A
C1264      F1269   1.355       .  S
C1265      C1266   1.406       .  A
C1266      F1267   1.357       .  S
F1270      C1783   1.358       .  S
C1271      C1272   1.398       .  A
C1271      C1276   1.394       .  A
C1271      F1278   1.353       .  S
C1272      C1273   1.410       .  A
C1273      C1274   1.405       .  A
C1273      F1280   1.358       .  S
C1274      C1275   1.404       .  A
C1274      F1279   1.358       .  S
C1275      C1276   1.403       .  A
C1276      F1277   1.357       .  S
C1281      C1282   1.408       .  A
C1281      C1286   1.380       .  A
C1281      F1288   1.359       .  S
C1282      C1283   1.410       .  A
C1283      C1284   1.404       .  A
C1283      F1290   1.358       .  S
C1284      C1285   1.407       .  A
C1284      F1289   1.357       .  S
C1285      C1286   1.404       .  A
C1286      F1287   1.359       .  S
C1291      C1296   1.387       .  A
C1291      F1298   1.357       .  S
C1292      C1293   1.394       .  A
C1293      C1294   1.384       .  A
C1293      F1300   1.359       .  S
C1294      C1295   1.407       .  A
C1294      F1299   1.359       .  S
C1296      F1297   1.358       .  S
C1301      C1302   1.545       .  S
C1301      C1307   1.551       .  S
C1301      C1305   1.549       .  S
C1301      C1420   1.575       .  S
C1302      H1309   1.086       .  S
C1302      C1303   1.377       .  D
C1303      C1304   1.580       .  S
C1303      C1362   1.531       .  S
C1304      C1308   1.578       .  S
C1304      C1306   1.564       .  S
C1304      H1310   1.110       .  S
C1305      H1311   1.086       .  S
C1305      C1306   1.388       .  D
C1306      C1336   1.530       .  S
C1307      H1312   1.086       .  S
C1307      C1308   1.364       .  D
C1308      C1394   1.526       .  S
C1313      C1314   1.565       .  S
C1313      C1319   1.544       .  S
C1313      C1317   1.529       .  S
C1313      C1440   1.570       .  S
C1314      H1321   1.085       .  S
C1314      C1315   1.386       .  D
C1315      C1316   1.570       .  S
C1315      C1409   1.542       .  S
C1316      C1320   1.577       .  S
C1316      C1318   1.589       .  S
C1316      H1322   1.110       .  S
C1317      H1323   1.086       .  S
C1317      C1318   1.365       .  D
C1318      C1351   1.522       .  S
C1319      H1324   1.077       .  S
C1319      C1320   1.377       .  D
C1320      C1382   1.532       .  S
O1325      C1333   1.278       .  A
O1326      C1334   1.274       .  A
O1327     Co1867   1.954   1_556  S
O1328      C1336   1.281       .  A
O1329      C1335   1.244       .  A
O1329     Co1346   2.022       .  S
O1330      C1336   1.280       .  A
O1330     Co1865   2.042       .  S
O1331      C1334   1.264       .  A
O1331     Co1348   1.949       .  S
O1332      C1333   1.303       .  A
O1332     Co1867   2.076   1_556  S
C1333      C1522   1.497       .  S
C1334      C1542   1.475       .  S
C1335      C1512   1.439       .  S
O1337      C1350   1.245       .  A
O1337     Co1345   1.920       .  S
O1338      C1351   1.291       .  A
O1338     Co1866   2.033       .  S
O1339      C1352   1.231       .  A
O1339     Co1347   1.956   1_556  S
O1340      C1873   1.277       .  A
O1340     Co1348   2.015       .  S
O1341      C1873   1.268       .  A
O1342     Co1345   1.960   1_455  S
O1343      C1350   1.252   1_565  A
O1343     Co1608   1.993       .  S
O1344      C1351   1.287       .  A
Co1345     O1850   2.042   1_545  S
Co1345     O1869   2.022   1_545  S
Co1346     O1858   2.033       .  S
Co1347     O1847   1.954   1_544  S
Co1347     O1852   2.076   1_544  S
Co1348     O1603   1.993       .  S
O1349     Co1865   2.022       .  S
C1350      C1502   1.451       .  S
C1352      C1552   1.432       .  S
C1353      O1860   1.277       .  A
C1353      O1861   1.268       .  A
C1353      C1532   1.471       .  S
O1354      C1362   1.284       .  A
O1354     Co1374   2.077       .  S
O1355      C1363   1.244       .  A
O1355     Co1375   1.916       .  S
O1356      C1364   1.251       .  A
O1357      C1365   1.247       .  A
O1358      C1364   1.270       .  A
O1358     Co1375   1.996       .  S
O1359      C1365   1.245       .  A
O1359     Co1374   1.946       .  S
O1360      C1363   1.256       .  A
O1360     Co1377   1.993       .  S
O1361      C1362   1.281       .  A
O1361     Co1376   2.016       .  S
C1363      C1495   1.437       .  S
C1364      C1465   1.452       .  S
C1365      C1505   1.442       .  S
O1366      C1379   1.258       .  A
O1366     Co1374   1.960       .  S
O1367      C1380   1.267       .  A
O1367     Co1375   1.960       .  S
O1368      C1381   1.243       .  A
O1368     Co1376   1.965       .  S
O1369      C1382   1.257       .  A
O1369     Co1377   1.980       .  S
O1370      C1382   1.287       .  A
O1370     Co1375   2.095       .  S
O1371      C1381   1.254       .  A
O1371     Co1374   1.994       .  S
O1372      C1379   1.251       .  A
O1373     Co1376   1.991   1_554  S
Co1374     O1378   2.199   1_556  S
Co1376     O1378   1.989   1_556  S
C1379      C1472   1.461       .  S
C1380      C1515   1.454       .  S
C1381      C1482   1.459       .  S
O1383      C1391   1.274       .  A
O1384      C1392   1.264       .  A
O1385      C1393   1.260       .  A
O1385     Co1405   1.935       .  S
O1386      C1394   1.278       .  A
O1386     Co1406   2.062       .  S
O1387      C1393   1.265       .  A
O1387     Co1404   1.990       .  S
O1388      C1394   1.261       .  A
O1388     Co1403   1.994       .  S
O1389      C1392   1.262       .  A
O1389     Co1406   1.984       .  S
O1390      C1391   1.266       .  A
O1390     Co1405   1.929       .  S
C1391      C1485   1.459       .  S
C1392      C1545   1.470       .  S
C1393      C1452   1.447       .  S
O1395      C1408   1.270       .  A
O1395     Co1403   2.019       .  S
O1396      C1409   1.275       .  A
O1396     Co1404   2.052       .  S
O1397      C1410   1.254       .  A
O1397     Co1405   1.930       .  S
O1398      C1411   1.272       .  A
O1398     Co1406   1.905       .  S
O1399      C1411   1.286       .  A
O1400     Co1403   1.967   1_455  S
O1401      C1408   1.249       .  A
O1401     Co1406   1.936       .  S
O1402      C1409   1.271       .  A
O1402     Co1405   2.027       .  S
Co1403     O1407   2.080       .  S
Co1406     O1407   1.921       .  S
C1408      C1442   1.443       .  S
C1410      C1555   1.446       .  S
C1411      C1492   1.449       .  S
O1412      C1420   1.288       .  A
O1412     Co1952   2.090       .  S
O1413      C1421   1.247       .  A
O1413     Co1953   1.958   1_545  S
O1414      C1422   1.270       .  A
O1414     Co1434   1.961       .  S
O1415      C1423   1.258       .  A
O1415     Co1435   1.956       .  S
O1416      C1422   1.286       .  A
O1416     Co1433   2.014       .  S
O1417      C1423   1.260       .  A
O1417     Co1432   1.975       .  S
O1418      C1421   1.258       .  A
O1418     Co1435   2.008       .  S
O1419      C1420   1.269       .  A
O1419     Co1434   1.993       .  S
C1421      C1535   1.465       .  S
C1422      C1462   1.471       .  S
C1423      C1445   1.457       .  S
O1424      C1437   1.280       .  A
O1424     Co1432   1.910       .  S
O1425      C1438   1.263       .  A
O1425     Co1433   1.971       .  S
O1426      C1439   1.268       .  A
O1426     Co1434   2.046       .  S
O1427      C1440   1.284       .  A
O1427     Co1435   2.057       .  S
O1428      C1440   1.291       .  A
O1428     Co1953   2.004   1_545  S
O1429      C1439   1.248       .  A
O1429     Co1952   1.960       .  S
O1430      C1437   1.280       .  A
O1430     Co1435   2.006       .  S
O1431      C1438   1.264       .  A
O1431     Co1434   1.974       .  S
Co1432     O1932   2.090   1_545  S
Co1432     O1949   1.960   1_545  S
Co1432     O1956   1.919   1_545  S
Co1433     O1933   1.958       .  S
Co1433     O1948   2.004       .  S
Co1433     O1436   1.973       .  S
Co1434     O1436   2.038       .  S
Co1435     O1956   2.108   1_545  S
O1436     Co1952   1.919       .  S
O1436     Co1955   2.108       .  S
C1437      C1475   1.442       .  S
C1438      C1455   1.463       .  S
C1439      C1525   1.476       .  S
C1441      C1442   1.402       .  A
C1441      C1446   1.394       .  A
C1441      F1448   1.358       .  S
C1442      C1443   1.400       .  A
C1443      C1444   1.387       .  A
C1443      F1450   1.359       .  S
C1444      C1445   1.407       .  A
C1444      F1449   1.358       .  S
C1445      C1446   1.402       .  A
C1446      F1447   1.358       .  S
C1451      C1452   1.407       .  A
C1451      C1456   1.396       .  A
C1451      F1458   1.357       .  S
C1452      C1453   1.392       .  A
C1453      C1454   1.388       .  A
C1453      F1460   1.357       .  S
C1454      C1455   1.410       .  A
C1454      F1459   1.359       .  S
C1455      C1456   1.399       .  A
C1456      F1457   1.358       .  S
C1461      C1462   1.404       .  A
C1461      C1466   1.395       .  A
C1461      F1468   1.358       .  S
C1462      C1463   1.413       .  A
C1463      C1464   1.392       .  A
C1463      F1470   1.358       .  S
C1464      C1465   1.397       .  A
C1464      F1469   1.358       .  S
C1465      C1466   1.404       .  A
C1466      F1467   1.357       .  S
C1471      C1472   1.415       .  A
C1471      C1476   1.383       .  A
C1471      F1478   1.359       .  S
C1472      C1473   1.400       .  A
C1473      C1474   1.388       .  A
C1473      F1480   1.358       .  S
C1474      C1475   1.409       .  A
C1474      F1479   1.359       .  S
C1475      C1476   1.388       .  A
C1476      F1477   1.356       .  S
C1481      C1482   1.406       .  A
C1481      C1486   1.392       .  A
C1481      F1488   1.358       .  S
C1482      C1483   1.404       .  A
C1483      C1484   1.383       .  A
C1483      F1490   1.359       .  S
C1484      C1485   1.405       .  A
C1484      F1489   1.359       .  S
C1485      C1486   1.404       .  A
C1486      F1487   1.358       .  S
C1491      C1492   1.401       .  A
C1491      C1496   1.391       .  A
C1491      F1498   1.358       .  S
C1492      C1493   1.403       .  A
C1493      C1494   1.387       .  A
C1493      F1500   1.359       .  S
C1494      C1495   1.399       .  A
C1494      F1499   1.359       .  S
C1495      C1496   1.401       .  A
C1496      F1497   1.358       .  S
C1501      C1502   1.399       .  A
C1501      C1506   1.389       .  A
C1502      C1503   1.406       .  A
C1503      C1504   1.381       .  A
C1503      F1510   1.359       .  S
C1504      C1505   1.393       .  A
C1504      F1509   1.355       .  S
C1505      C1506   1.406       .  A
C1511      C1512   1.397       .  A
C1511      C1516   1.391       .  A
C1511      F1518   1.356       .  S
C1512      C1513   1.398       .  A
C1513      C1514   1.384       .  A
C1513      F1520   1.359       .  S
C1514      C1515   1.405       .  A
C1514      F1519   1.359       .  S
C1515      C1516   1.407       .  A
C1516      F1517   1.358       .  S
C1521      C1522   1.411       .  A
C1521      C1526   1.402       .  A
C1521      F1528   1.357       .  S
C1522      C1523   1.413       .  A
C1523      C1524   1.403       .  A
C1523      F2050   1.358       .  S
C1524      C1525   1.401       .  A
C1524      F1529   1.355       .  S
C1525      C1526   1.406       .  A
C1526      F1527   1.357       .  S
F1530      C2043   1.358       .  S
C1531      C1532   1.398       .  A
C1531      C1536   1.394       .  A
C1531      F1538   1.353       .  S
C1532      C1533   1.410       .  A
C1533      C1534   1.405       .  A
C1533      F1540   1.358       .  S
C1534      C1535   1.404       .  A
C1534      F1539   1.358       .  S
C1535      C1536   1.403       .  A
C1536      F1537   1.357       .  S
C1541      C1542   1.408       .  A
C1541      C1546   1.380       .  A
C1541      F1548   1.359       .  S
C1542      C1543   1.410       .  A
C1543      C1544   1.404       .  A
C1543      F1550   1.358       .  S
C1544      C1545   1.407       .  A
C1544      F1549   1.357       .  S
C1545      C1546   1.404       .  A
C1546      F1547   1.359       .  S
C1551      C1556   1.387       .  A
C1551      F1558   1.357       .  S
C1552      C1553   1.394       .  A
C1553      C1554   1.384       .  A
C1553      F1560   1.359       .  S
C1554      C1555   1.407       .  A
C1554      F1559   1.359       .  S
C1556      F1557   1.358       .  S
C1561      C1562   1.545       .  S
C1561      C1567   1.551       .  S
C1561      C1565   1.549       .  S
C1561      C1680   1.575       .  S
C1562      H1569   1.086       .  S
C1562      C1563   1.377       .  D
C1563      C1564   1.580       .  S
C1563      C1622   1.531       .  S
C1564      C1568   1.578       .  S
C1564      C1566   1.564       .  S
C1564      H1570   1.110       .  S
C1565      H1571   1.086       .  S
C1565      C1566   1.388       .  D
C1566      C1596   1.530       .  S
C1567      H1572   1.086       .  S
C1567      C1568   1.364       .  D
C1568      C1654   1.526       .  S
C1573      C1574   1.564       .  S
C1573      C1579   1.544       .  S
C1573      C1577   1.529       .  S
C1573      C1700   1.570       .  S
C1574      H1581   1.085       .  S
C1574      C1575   1.386       .  D
C1575      C1576   1.570       .  S
C1575      C1669   1.541       .  S
C1576      C1580   1.577       .  S
C1576      C1578   1.589       .  S
C1576      H1582   1.110       .  S
C1577      H1583   1.086       .  S
C1577      C1578   1.365       .  D
C1578      C1611   1.522       .  S
C1579      H1584   1.077       .  S
C1579      C1580   1.377       .  D
C1580      C1642   1.532       .  S
O1585      C1593   1.278       .  A
O1586      C1594   1.274       .  A
O1587      C1855   1.248       .  A
O1588      C1596   1.281       .  A
O1588     Co1868   2.018       .  S
O1589      C1595   1.244       .  A
O1589     Co1606   2.022   1_565  S
O1590      C1596   1.280       .  A
O1591      C1594   1.264       .  A
O1591     Co1608   1.949   1_554  S
O1592      C1593   1.303       .  A
C1593      C1782   1.497       .  S
C1594      C1802   1.475       .  S
C1595      O1847   1.248   1_554  A
C1595      C1772   1.439       .  S
O1597      C1610   1.245       .  A
O1597     Co1605   1.920       .  S
O1598      C1611   1.291       .  A
O1599      C1612   1.231       .  A
O1599     Co1607   1.956       .  S
O1600     Co1608   2.015   1_544  S
O1602     Co1605   1.960   1_455  S
O1603      C1610   1.252       .  A
O1604      C1611   1.287       .  A
O1604     Co1867   2.024       .  S
Co1607     O1864   2.024       .  S
Co1608     O1848   2.018       .  S
Co1608     O1869   2.079       .  S
O1609     Co1868   2.079       .  S
C1610      C1762   1.451       .  S
C1612      C1812   1.432       .  S
C1613      C1792   1.471       .  S
O1614      C1622   1.284       .  A
O1614     Co1634   2.077       .  S
O1615      C1623   1.244       .  A
O1615     Co1635   1.916       .  S
O1616      C1624   1.251       .  A
O1616     Co1896   1.965   1_554  S
O1617      C1625   1.247       .  A
O1617     Co1897   1.941       .  S
O1618      C1624   1.270       .  A
O1618     Co1635   1.996       .  S
O1619      C1625   1.245       .  A
O1619     Co1634   1.946       .  S
O1620      C1623   1.256       .  A
O1620     Co1637   1.993       .  S
O1621      C1622   1.281       .  A
O1621     Co1636   2.016       .  S
C1623      C1755   1.437       .  S
C1624      C1725   1.452       .  S
C1625      C1765   1.442       .  S
O1626      C1639   1.258       .  A
O1626     Co1634   1.959       .  S
O1627      C1640   1.267       .  A
O1627     Co1635   1.960       .  S
O1628      C1641   1.243       .  A
O1628     Co1636   1.965       .  S
O1629      C1642   1.257       .  A
O1629     Co1637   1.980       .  S
O1630      C1642   1.287       .  A
O1630     Co1635   2.095       .  S
O1631      C1641   1.254       .  A
O1631     Co1634   1.994       .  S
O1632      C1639   1.251       .  A
O1632     Co1897   1.933       .  S
O1633      C1900   1.272       .  A
O1633     Co1636   1.991       .  S
Co1634     O1638   2.199       .  S
Co1635     O1898   2.064       .  S
Co1636     O1876   1.965       .  S
Co1636     O1638   1.989       .  S
Co1637     O1877   1.941   1_554  S
Co1637     O1892   1.933   1_554  S
Co1637     O1898   2.074       .  S
O1638     Co1895   2.064       .  S
O1638     Co1897   2.074       .  S
C1639      C1732   1.461       .  S
C1640      O1893   1.272       .  A
C1640      C1775   1.454       .  S
C1641      C1742   1.459       .  S
O1643      C1651   1.274       .  A
O1644      C1652   1.264       .  A
O1645      C1653   1.260       .  A
O1645     Co1665   1.935       .  S
O1646      C1654   1.278       .  A
O1646     Co1666   2.062       .  S
O1647      C1653   1.265       .  A
O1647     Co1664   1.990       .  S
O1648      C1654   1.261       .  A
O1648     Co1663   1.994       .  S
O1649      C1652   1.262       .  A
O1649     Co1666   1.984       .  S
O1650      C1651   1.266       .  A
O1650     Co1665   1.929       .  S
C1651      C1745   1.459       .  S
C1652      C1805   1.470       .  S
C1653      C1712   1.447       .  S
O1655      C1668   1.270       .  A
O1655     Co1663   2.018       .  S
O1656      C1669   1.275       .  A
O1656     Co1664   2.052       .  S
O1657      C1670   1.254       .  A
O1657     Co1665   1.930       .  S
O1658      C1671   1.272       .  A
O1658     Co1666   1.905       .  S
O1659      C1671   1.286       .  A
O1660     Co1663   1.967   1_455  S
O1661      C1668   1.249       .  A
O1661     Co1666   1.936       .  S
O1662      C1669   1.271       .  A
O1662     Co1665   2.027       .  S
Co1663     O1667   2.080       .  S
Co1666     O1667   1.921       .  S
C1668      C1702   1.443       .  S
C1670      C1815   1.446       .  S
C1671      C1752   1.450       .  S
O1672      C1680   1.288       .  A
O1673      C1681   1.247       .  A
O1674      C1682   1.270       .  A
O1674     Co1694   1.961       .  S
O1675      C1683   1.258       .  A
O1675     Co1695   1.956       .  S
O1676      C1682   1.286       .  A
O1676     Co1693   2.014       .  S
O1677      C1683   1.260       .  A
O1677     Co1692   1.975       .  S
O1678      C1681   1.258       .  A
O1678     Co1695   2.008       .  S
O1679      C1680   1.269       .  A
O1679     Co1694   1.993       .  S
C1681      C1795   1.465       .  S
C1682      C1722   1.471       .  S
C1683      C1705   1.457       .  S
O1684      C1697   1.281       .  A
O1684     Co1692   1.910       .  S
O1685      C1698   1.263       .  A
O1685     Co1693   1.971       .  S
O1686      C1699   1.268       .  A
O1686     Co1694   2.046       .  S
O1687      C1700   1.284       .  A
O1687     Co1695   2.057       .  S
O1688      C1700   1.291       .  A
O1689      C1699   1.248       .  A
O1690      C1697   1.280       .  A
O1690     Co1695   2.006       .  S
O1691      C1698   1.264       .  A
O1691     Co1694   1.974       .  S
Co1693     O1696   1.973       .  S
Co1694     O1696   2.038       .  S
C1697      C1735   1.442       .  S
C1698      C1715   1.463       .  S
C1699      C1785   1.476       .  S
C1701      C1702   1.402       .  A
C1701      C1706   1.394       .  A
C1701      F1708   1.358       .  S
C1702      C1703   1.400       .  A
C1703      C1704   1.387       .  A
C1703      F1710   1.359       .  S
C1704      C1705   1.407       .  A
C1704      F1709   1.358       .  S
C1705      C1706   1.402       .  A
C1706      F1707   1.358       .  S
C1711      C1712   1.407       .  A
C1711      C1716   1.396       .  A
C1711      F1718   1.357       .  S
C1712      C1713   1.392       .  A
C1713      C1714   1.388       .  A
C1713      F1720   1.357       .  S
C1714      C1715   1.410       .  A
C1714      F1719   1.359       .  S
C1715      C1716   1.399       .  A
C1716      F1717   1.358       .  S
C1721      C1722   1.404       .  A
C1721      C1726   1.395       .  A
C1721      F1728   1.358       .  S
C1722      C1723   1.413       .  A
C1723      C1724   1.392       .  A
C1723      F1730   1.358       .  S
C1724      C1725   1.397       .  A
C1724      F1729   1.358       .  S
C1725      C1726   1.404       .  A
C1726      F1727   1.357       .  S
C1731      C1732   1.415       .  A
C1731      C1736   1.383       .  A
C1731      F1738   1.359       .  S
C1732      C1733   1.400       .  A
C1733      C1734   1.388       .  A
C1733      F1740   1.358       .  S
C1734      C1735   1.409       .  A
C1734      F1739   1.359       .  S
C1735      C1736   1.388       .  A
C1736      F1737   1.356       .  S
C1741      C1742   1.406       .  A
C1741      C1746   1.392       .  A
C1741      F1748   1.358       .  S
C1742      C1743   1.404       .  A
C1743      C1744   1.383       .  A
C1743      F1750   1.359       .  S
C1744      C1745   1.405       .  A
C1744      F1749   1.359       .  S
C1745      C1746   1.404       .  A
C1746      F1747   1.358       .  S
C1751      C1752   1.401       .  A
C1751      C1756   1.391       .  A
C1751      F1758   1.358       .  S
C1752      C1753   1.403       .  A
C1753      C1754   1.387       .  A
C1753      F1760   1.359       .  S
C1754      C1755   1.399       .  A
C1754      F1759   1.359       .  S
C1755      C1756   1.401       .  A
C1756      F1757   1.358       .  S
C1761      C1762   1.399       .  A
C1761      C1766   1.389       .  A
C1761      F2028   1.358       .  S
C1762      C1763   1.406       .  A
C1763      C1764   1.381       .  A
C1763      F1770   1.359       .  S
C1764      C1765   1.393       .  A
C1764      F1769   1.355       .  S
C1765      C1766   1.406       .  A
C1766      F2027   1.358       .  S
F1767      C2026   1.358       .  S
F1768      C2021   1.358       .  S
C1771      C1772   1.397       .  A
C1771      C1776   1.391       .  A
C1771      F1778   1.356       .  S
C1772      C1773   1.398       .  A
C1773      C1774   1.384       .  A
C1773      F1780   1.359       .  S
C1774      C1775   1.405       .  A
C1774      F1779   1.359       .  S
C1775      C1776   1.407       .  A
C1776      F1777   1.358       .  S
C1781      C1782   1.411       .  A
C1781      C1786   1.402       .  A
C1781      F1788   1.357       .  S
C1782      C1783   1.413       .  A
C1783      C1784   1.403       .  A
C1784      C1785   1.401       .  A
C1784      F1789   1.355       .  S
C1785      C1786   1.406       .  A
C1786      F1787   1.357       .  S
C1791      C1792   1.398       .  A
C1791      C1796   1.394       .  A
C1791      F1798   1.353       .  S
C1792      C1793   1.410       .  A
C1793      C1794   1.405       .  A
C1793      F1800   1.358       .  S
C1794      C1795   1.404       .  A
C1794      F1799   1.358       .  S
C1795      C1796   1.403       .  A
C1796      F1797   1.357       .  S
C1801      C1802   1.408       .  A
C1801      C1806   1.380       .  A
C1801      F1808   1.359       .  S
C1802      C1803   1.410       .  A
C1803      C1804   1.404       .  A
C1803      F1810   1.358       .  S
C1804      C1805   1.407       .  A
C1804      F1809   1.357       .  S
C1805      C1806   1.404       .  A
C1806      F1807   1.359       .  S
C1811      C1816   1.387       .  A
C1811      F1818   1.357       .  S
C1812      C1813   1.394       .  A
C1813      C1814   1.384       .  A
C1813      F1820   1.359       .  S
C1814      C1815   1.407       .  A
C1814      F1819   1.359       .  S
C1816      F1817   1.358       .  S
C1821      C1822   1.545       .  S
C1821      C1827   1.551       .  S
C1821      C1825   1.549       .  S
C1821      C1940   1.575       .  S
C1822      H1829   1.086       .  S
C1822      C1823   1.377       .  D
C1823      C1824   1.580       .  S
C1823      C1882   1.531       .  S
C1824      C1828   1.578       .  S
C1824      C1826   1.564       .  S
C1824      H1830   1.110       .  S
C1825      H1831   1.086       .  S
C1825      C1826   1.388       .  D
C1826      C1856   1.530       .  S
C1827      H1832   1.086       .  S
C1827      C1828   1.364       .  D
C1828      C1914   1.526       .  S
C1833      C1834   1.564       .  S
C1833      C1839   1.544       .  S
C1833      C1837   1.529       .  S
C1833      C1960   1.570       .  S
C1834      H1841   1.085       .  S
C1834      C1835   1.386       .  D
C1835      C1836   1.570       .  S
C1835      C1929   1.541       .  S
C1836      C1840   1.577       .  S
C1836      C1838   1.589       .  S
C1836      H1842   1.110       .  S
C1837      H1843   1.086       .  S
C1837      C1838   1.365       .  D
C1838      C1871   1.522       .  S
C1839      H1844   1.077       .  S
C1839      C1840   1.377       .  D
C1840      C1902   1.532       .  S
O1845      C1853   1.278       .  A
O1846      C1854   1.274       .  A
O1848      C1856   1.281       .  A
O1849      C1855   1.244       .  A
O1849     Co1866   2.022   1_565  S
O1850      C1856   1.280       .  A
O1851      C1854   1.264       .  A
O1851     Co1868   1.949       .  S
O1852      C1853   1.303       .  A
C1853      C2042   1.497       .  S
C1854      C2062   1.475       .  S
C1855      C2032   1.439       .  S
O1857      C1870   1.245       .  A
O1857     Co1865   1.920       .  S
O1858      C1871   1.291       .  A
O1859      C1872   1.231       .  A
O1859     Co1867   1.956   1_556  S
O1860     Co1868   2.015   1_545  S
O1862     Co1865   1.960   1_455  S
O1863      C1870   1.252       .  A
O1864      C1871   1.287       .  A
C1870      C2022   1.451       .  S
C1872      C2072   1.432       .  S
C1873      C2052   1.471       .  S
O1874      C1882   1.284       .  A
O1874     Co1894   2.077       .  S
O1875      C1883   1.244       .  A
O1875     Co1895   1.916       .  S
O1876      C1884   1.251       .  A
O1877      C1885   1.247       .  A
O1878      C1884   1.270       .  A
O1878     Co1895   1.996       .  S
O1879      C1885   1.245       .  A
O1879     Co1894   1.946       .  S
O1880      C1883   1.256       .  A
O1880     Co1897   1.993       .  S
O1881      C1882   1.281       .  A
O1881     Co1896   2.016       .  S
C1883      C2015   1.437       .  S
C1884      C1985   1.452       .  S
C1885      C2025   1.442       .  S
O1886      C1899   1.258       .  A
O1886     Co1894   1.959       .  S
O1887      C1900   1.267       .  A
O1887     Co1895   1.960       .  S
O1888      C1901   1.243       .  A
O1888     Co1896   1.965       .  S
O1889      C1902   1.257       .  A
O1889     Co1897   1.980       .  S
O1890      C1902   1.287       .  A
O1890     Co1895   2.095       .  S
O1891      C1901   1.254       .  A
O1891     Co1894   1.994       .  S
O1892      C1899   1.251       .  A
O1893     Co1896   1.991   1_554  S
Co1894     O1898   2.199   1_556  S
Co1896     O1898   1.989   1_556  S
C1899      C1992   1.461       .  S
C1900      C2035   1.454       .  S
C1901      C2002   1.459       .  S
O1903      C1911   1.274       .  A
O1904      C1912   1.264       .  A
O1905      C1913   1.260       .  A
O1905     Co1925   1.935       .  S
O1906      C1914   1.278       .  A
O1906     Co1926   2.062       .  S
O1907      C1913   1.265       .  A
O1907     Co1924   1.990       .  S
O1908      C1914   1.261       .  A
O1908     Co1923   1.994       .  S
O1909      C1912   1.262       .  A
O1909     Co1926   1.984       .  S
O1910      C1911   1.266       .  A
O1910     Co1925   1.929       .  S
C1911      C2005   1.459       .  S
C1912      C2065   1.470       .  S
C1913      C1972   1.447       .  S
O1915      C1928   1.270       .  A
O1915     Co1923   2.018       .  S
O1916      C1929   1.275       .  A
O1916     Co1924   2.052       .  S
O1917      C1930   1.254       .  A
O1917     Co1925   1.930       .  S
O1918      C1931   1.272       .  A
O1918     Co1926   1.905       .  S
O1919      C1931   1.286       .  A
O1920     Co1923   1.967   1_455  S
O1921      C1928   1.250       .  A
O1921     Co1926   1.936       .  S
O1922      C1929   1.271       .  A
O1922     Co1925   2.027       .  S
Co1923     O1927   2.080       .  S
Co1926     O1927   1.921       .  S
C1928      C1962   1.443       .  S
C1930      C2075   1.446       .  S
C1931      C2012   1.450       .  S
O1932      C1940   1.288       .  A
O1933      C1941   1.247       .  A
O1934      C1942   1.270       .  A
O1934     Co1954   1.961       .  S
O1935      C1943   1.258       .  A
O1935     Co1955   1.956       .  S
O1936      C1942   1.286       .  A
O1936     Co1953   2.014       .  S
O1937      C1943   1.260       .  A
O1937     Co1952   1.975       .  S
O1938      C1941   1.258       .  A
O1938     Co1955   2.008       .  S
O1939      C1940   1.269       .  A
O1939     Co1954   1.993       .  S
C1941      C2055   1.465       .  S
C1942      C1982   1.471       .  S
C1943      C1965   1.457       .  S
O1944      C1957   1.281       .  A
O1944     Co1952   1.910       .  S
O1945      C1958   1.263       .  A
O1945     Co1953   1.971       .  S
O1946      C1959   1.268       .  A
O1946     Co1954   2.046       .  S
O1947      C1960   1.284       .  A
O1947     Co1955   2.057       .  S
O1948      C1960   1.291       .  A
O1949      C1959   1.248       .  A
O1950      C1957   1.280       .  A
O1950     Co1955   2.006       .  S
O1951      C1958   1.264       .  A
O1951     Co1954   1.974       .  S
Co1953     O1956   1.973       .  S
Co1954     O1956   2.038       .  S
C1957      C1995   1.442       .  S
C1958      C1975   1.463       .  S
C1959      C2045   1.476       .  S
C1961      C1962   1.402       .  A
C1961      C1966   1.394       .  A
C1961      F1968   1.358       .  S
C1962      C1963   1.400       .  A
C1963      C1964   1.387       .  A
C1963      F1970   1.359       .  S
C1964      C1965   1.407       .  A
C1964      F1969   1.358       .  S
C1965      C1966   1.402       .  A
C1966      F1967   1.358       .  S
C1971      C1972   1.407       .  A
C1971      C1976   1.396       .  A
C1971      F1978   1.357       .  S
C1972      C1973   1.392       .  A
C1973      C1974   1.388       .  A
C1973      F1980   1.357       .  S
C1974      C1975   1.410       .  A
C1974      F1979   1.359       .  S
C1975      C1976   1.399       .  A
C1976      F1977   1.358       .  S
C1981      C1982   1.404       .  A
C1981      C1986   1.395       .  A
C1981      F1988   1.358       .  S
C1982      C1983   1.413       .  A
C1983      C1984   1.392       .  A
C1983      F1990   1.358       .  S
C1984      C1985   1.397       .  A
C1984      F1989   1.358       .  S
C1985      C1986   1.404       .  A
C1986      F1987   1.357       .  S
C1991      C1992   1.415       .  A
C1991      C1996   1.383       .  A
C1991      F1998   1.359       .  S
C1992      C1993   1.400       .  A
C1993      C1994   1.388       .  A
C1993      F2000   1.358       .  S
C1994      C1995   1.409       .  A
C1994      F1999   1.359       .  S
C1995      C1996   1.388       .  A
C1996      F1997   1.356       .  S
C2001      C2002   1.406       .  A
C2001      C2006   1.392       .  A
C2001      F2008   1.358       .  S
C2002      C2003   1.404       .  A
C2003      C2004   1.383       .  A
C2003      F2010   1.359       .  S
C2004      C2005   1.405       .  A
C2004      F2009   1.359       .  S
C2005      C2006   1.404       .  A
C2006      F2007   1.358       .  S
C2011      C2012   1.401       .  A
C2011      C2016   1.391       .  A
C2011      F2018   1.358       .  S
C2012      C2013   1.403       .  A
C2013      C2014   1.387       .  A
C2013      F2020   1.359       .  S
C2014      C2015   1.399       .  A
C2014      F2019   1.359       .  S
C2015      C2016   1.401       .  A
C2016      F2017   1.358       .  S
C2021      C2022   1.399       .  A
C2021      C2026   1.389       .  A
C2022      C2023   1.406       .  A
C2023      C2024   1.381       .  A
C2023      F2030   1.359       .  S
C2024      C2025   1.393       .  A
C2024      F2029   1.355       .  S
C2025      C2026   1.406       .  A
C2031      C2032   1.397       .  A
C2031      C2036   1.391       .  A
C2031      F2038   1.356       .  S
C2032      C2033   1.398       .  A
C2033      C2034   1.384       .  A
C2033      F2040   1.359       .  S
C2034      C2035   1.405       .  A
C2034      F2039   1.359       .  S
C2035      C2036   1.407       .  A
C2036      F2037   1.358       .  S
C2041      C2042   1.411       .  A
C2041      C2046   1.402       .  A
C2041      F2048   1.357       .  S
C2042      C2043   1.413       .  A
C2043      C2044   1.403       .  A
C2044      C2045   1.401       .  A
C2044      F2049   1.355       .  S
C2045      C2046   1.406       .  A
C2046      F2047   1.357       .  S
C2051      C2052   1.398       .  A
C2051      C2056   1.394       .  A
C2051      F2058   1.353       .  S
C2052      C2053   1.410       .  A
C2053      C2054   1.405       .  A
C2053      F2060   1.358       .  S
C2054      C2055   1.404       .  A
C2054      F2059   1.358       .  S
C2055      C2056   1.403       .  A
C2056      F2057   1.357       .  S
C2061      C2062   1.408       .  A
C2061      C2066   1.380       .  A
C2061      F2068   1.359       .  S
C2062      C2063   1.410       .  A
C2063      C2064   1.404       .  A
C2063      F2070   1.358       .  S
C2064      C2065   1.407       .  A
C2064      F2069   1.357       .  S
C2065      C2066   1.404       .  A
C2066      F2067   1.359       .  S
C2071      C2076   1.387       .  A
C2071      F2078   1.357       .  S
C2072      C2073   1.394       .  A
C2073      C2074   1.384       .  A
C2073      F2080   1.359       .  S
C2074      C2075   1.407       .  A
C2074      F2079   1.359       .  S
C2076      F2077   1.358       .  S
