geometry optimzed in LAMMPS
_audit_creation_date              2020-12-01 
_audit_creation_method            'lammps2cif' 
_symmetry_space_group_name_H-M    'P1' 
_symmetry_Int_Tables_number       1 
_symmetry_cell_setting            triclinic 
loop_ 
_symmetry_equiv_pos_as_xyz 
  x,y,z 
_cell_length_a                    30.11313247 
_cell_length_b                    29.97636257465717 
_cell_length_c                    30.316247609082545 
_cell_angle_alpha                 90.02887639998036 
_cell_angle_beta                  89.98890930512266 
_cell_angle_gamma                 89.98264816673263 
loop_ 
_atom_site_label 
_atom_site_type_symbol 
_atom_site_fract_x 
_atom_site_fract_y 
_atom_site_fract_z 
_atom_site_charge 
O1          O  0.45602994  0.45089575  0.69020994    -0.74400
O2          O  0.54908584  0.54497022  0.68853077    -0.74400
O3          O  0.45630506  0.54466282  0.68985054    -0.74500
O4          O  0.54920528  0.45085943  0.68893497    -0.74500
O5          O  0.55417489  0.46492668  0.61750494    -0.74500
O6          O  0.44965319  0.53045042  0.61850791    -0.74400
O7          O  0.53452153  0.55012778  0.61718856    -0.74400
O8          O  0.46939800  0.44510930  0.61876448    -0.74500
Ni9        Ni  0.50276066  0.49783420  0.69327524     1.25400
Ni10       Ni  0.50190222  0.49762277  0.61602003     1.25400
C11         C  0.44774912  0.43260694  0.65246309     0.87800
C12         C  0.55625371  0.56331054  0.65057222     0.87700
C13         C  0.43803604  0.55278835  0.65214650     0.87700
C14         C  0.56660936  0.44261305  0.65082344     0.87900
O15         O  0.69785853  0.54750122  0.44297729    -0.74400
O16         O  0.69940618  0.45358413  0.53502498    -0.74400
O17         O  0.69870235  0.45385565  0.44290778    -0.74500
O18         O  0.69866833  0.54729203  0.53520543    -0.74500
O19         O  0.62636656  0.53479387  0.54013345    -0.74500
O20         O  0.62617093  0.46533539  0.43916282    -0.74400
O21         O  0.62692333  0.44906274  0.52381953    -0.74400
O22         O  0.62548261  0.55119302  0.45529540    -0.74500
Ni23       Ni  0.70243683  0.50060519  0.48901390     1.25400
Ni24       Ni  0.62432103  0.50009136  0.48962829     1.25400
C25         C  0.65943614  0.56471703  0.43450302     0.87800
C26         C  0.66137160  0.43578049  0.54392814     0.87700
C27         C  0.66039430  0.44445156  0.42618447     0.87700
C28         C  0.66047838  0.55617202  0.55251353     0.87900
O29         O  0.55292851  0.63245451  0.52071263    -0.74400
O30         O  0.44597010  0.63157087  0.45932764    -0.74400
O31         O  0.53006944  0.63267158  0.43702415    -0.74500
O32         O  0.46880806  0.63107342  0.54302754    -0.74500
O33         O  0.45195344  0.70257271  0.53704739    -0.74500
O34         O  0.54550949  0.70434400  0.44438629    -0.74400
O35         O  0.45216902  0.70339672  0.44406083    -0.74400
O36         O  0.54512013  0.70387321  0.53717467    -0.74500
Ni37       Ni  0.49946541  0.62987391  0.49000915     1.25400
Ni38       Ni  0.49860654  0.70767409  0.49067791     1.25400
C39         C  0.56416591  0.66583542  0.54396199     0.87800
C40         C  0.43402394  0.66502975  0.43658372     0.87700
C41         C  0.55282081  0.66629009  0.42558292     0.87700
C42         C  0.44564796  0.66411358  0.55536318     0.87900
O43         O  0.37588244  0.54693621  0.52639690    -0.74400
O44         O  0.37468618  0.44783204  0.45352416    -0.74400
O45         O  0.37463247  0.53434034  0.44089801    -0.74500
O46         O  0.37586830  0.46057750  0.53887515    -0.74500
O47         O  0.30312971  0.45026265  0.53669911    -0.74500
O48         O  0.30194817  0.54462946  0.44507435    -0.74400
O49         O  0.30193564  0.45094597  0.44398078    -0.74400
O50         O  0.30325425  0.54373568  0.53738653    -0.74500
Ni51       Ni  0.37712960  0.49739979  0.48987338     1.25400
Ni52       Ni  0.29889926  0.49735656  0.49081910     1.25400
C53         C  0.34164700  0.56049912  0.54674312     0.87800
C54         C  0.34015526  0.43430372  0.43368779     0.87700
C55         C  0.34002937  0.55479795  0.42822729     0.87700
C56         C  0.34160774  0.44046967  0.55287236     0.87900
O57         O  0.45497674  0.29486930  0.53584660    -0.74400
O58         O  0.54667154  0.29676894  0.44177994    -0.74400
O59         O  0.54807862  0.29558892  0.53428404    -0.74500
O60         O  0.45348033  0.29593389  0.44283336    -0.74500
O61         O  0.46711555  0.36821532  0.43787087    -0.74500
O62         O  0.53299191  0.36743697  0.54119496    -0.74400
O63         O  0.55206474  0.36881806  0.45673284    -0.74400
O64         O  0.44802788  0.36693690  0.52204160    -0.74500
Ni65       Ni  0.50076826  0.29179899  0.48862635     1.25400
Ni66       Ni  0.50002469  0.36985184  0.48949996     1.25400
C67         C  0.43682413  0.33299858  0.54433450     0.87800
C68         C  0.56437412  0.33531118  0.43427871     0.87700
C69         C  0.55573039  0.33374160  0.55265910     0.87700
C70         C  0.44537072  0.33435139  0.42516057     0.87900
O71         O  0.54545552  0.54780304  0.29059531    -0.74400
O72         O  0.45382866  0.45257992  0.28876054    -0.74400
O73         O  0.45238932  0.54670135  0.29031116    -0.74500
O74         O  0.54695418  0.45391793  0.28941522    -0.74500
O75         O  0.53319224  0.44800014  0.36078624    -0.74500
O76         O  0.46551946  0.55103339  0.36192664    -0.74400
O77         O  0.44798507  0.46546338  0.36030863    -0.74400
O78         O  0.55069245  0.53390215  0.36210706    -0.74500
Ni79       Ni  0.49966353  0.50031462  0.28590693     1.25400
Ni80       Ni  0.49934333  0.49954028  0.36320322     1.25400
C81         C  0.56284929  0.55624632  0.32866920     0.87800
C82         C  0.43611560  0.44349133  0.32652089     0.87700
C83         C  0.44406884  0.56423165  0.32844457     0.87700
C84         C  0.55506379  0.43563758  0.32720255     0.87900
C85         C  0.65161039  0.65262022  0.63974779     0.86500
C86         C  0.67732138  0.61787782  0.61036875    -0.53700
C87         C  0.65010822  0.59284807  0.58436797     0.09400
C88         C  0.60118460  0.60457344  0.59067332     0.20400
C89         C  0.62229758  0.68013169  0.60673984    -0.54400
C90         C  0.59603966  0.65417391  0.58043924     0.09500
C91         C  0.61807232  0.62236402  0.66605404    -0.54000
C92         C  0.59098919  0.59756708  0.63956064     0.10100
H93         H  0.71275242  0.61173231  0.61152322     0.14600
H94         H  0.57958378  0.58418384  0.56972173     0.00400
H95         H  0.62311358  0.71625887  0.60423107     0.14900
H96         H  0.61692361  0.61967892  0.70178092     0.14700
C97         C  0.85028406  0.84637379  0.83685584     0.86500
C98         C  0.88509778  0.87576097  0.81124969    -0.53700
C99         C  0.91030993  0.90187092  0.83817184     0.09400
C100        C  0.89875326  0.89539632  0.88679727     0.20400
C101        C  0.88007638  0.81931233  0.87014599    -0.54400
C102        C  0.90497917  0.84586621  0.89709963     0.09500
C103        C  0.82332904  0.87994288  0.86608060    -0.54000
C104        C  0.84948538  0.90610186  0.89218671     0.10100
H105        H  0.89061460  0.87485542  0.77593868     0.14600
H106        H  0.91939528  0.91638087  0.90805783     0.00400
H107        H  0.88213630  0.78326254  0.87159079     0.14900
H108        H  0.78733305  0.88270868  0.86557265     0.14700
C109        C  0.65382754  0.34548882  0.63771378     0.86500
C110        C  0.67918491  0.37645884  0.60413438    -0.53700
C111        C  0.65155019  0.40158692  0.57865313     0.09400
C112        C  0.60276540  0.39449381  0.59036402     0.20400
C113        C  0.62506935  0.37966969  0.66497932    -0.54400
C114        C  0.59811571  0.40553029  0.63932507     0.09500
C115        C  0.61965095  0.31858879  0.60918104    -0.54000
C116        C  0.59243190  0.34499924  0.58444070     0.10100
H117        H  0.71492253  0.38024481  0.60200522     0.14600
H118        H  0.58091291  0.41521123  0.57010730     0.00400
H119        H  0.62699507  0.38388413  0.70051849     0.14900
H120        H  0.61739070  0.28238315  0.60903921     0.14700
C121        C  0.84878436  0.15044843  0.83798840     0.86500
C122        C  0.88159366  0.17741012  0.86846889    -0.53700
C123        C  0.90817622  0.15088845  0.89366124     0.09400
C124        C  0.89780413  0.10138814  0.88747852     0.20400
C125        C  0.87885409  0.11670559  0.81204059    -0.54400
C126        C  0.90452777  0.09056392  0.83871086     0.09500
C127        C  0.82205991  0.12101930  0.87185622    -0.54000
C128        C  0.84852742  0.09500452  0.89785130     0.10100
H129        H  0.88292786  0.21346025  0.87127920     0.14600
H130        H  0.91868187  0.08049387  0.90859629     0.00400
H131        H  0.87933236  0.11395817  0.77628636     0.14900
H132        H  0.78625650  0.12156457  0.87559873     0.14700
C133        C  0.34972783  0.64890878  0.64224577     0.86500
C134        C  0.38283230  0.67696007  0.61360342    -0.53700
C135        C  0.41002163  0.65153272  0.58783040     0.09400
C136        C  0.40073252  0.60167640  0.59298881     0.20400
C137        C  0.32428644  0.61824668  0.60854190    -0.54400
C138        C  0.35181913  0.59402638  0.58203214     0.09500
C139        C  0.37942693  0.61463623  0.66828542    -0.54000
C140        C  0.40636323  0.58987414  0.64164446     0.10100
H141        H  0.38433866  0.71319467  0.61402709     0.14600
H142        H  0.42257746  0.58156394  0.57203174     0.00400
H143        H  0.28841455  0.61475898  0.60680037     0.14900
H144        H  0.37762909  0.60863977  0.70348000     0.14700
C145        C  0.15351251  0.84614386  0.83880947     0.86500
C146        C  0.17946186  0.87555732  0.87341762    -0.53700
C147        C  0.15238414  0.90158307  0.89881207     0.09400
C148        C  0.10347299  0.89500466  0.88736598     0.20400
C149        C  0.12013243  0.81903260  0.86850188    -0.54400
C150        C  0.09307898  0.84550411  0.89336783     0.09500
C151        C  0.12399425  0.87988768  0.81231084    -0.54000
C152        C  0.09787630  0.90603174  0.83853400     0.10100
H153        H  0.21513708  0.87482789  0.87847014     0.14600
H154        H  0.08211355  0.91580393  0.90806751     0.00400
H155        H  0.11872197  0.78294538  0.87059461     0.14900
H156        H  0.12442043  0.88284011  0.77660003     0.14700
C157        C  0.64994961  0.65356252  0.33958142     0.86500
C158        C  0.62091052  0.61893666  0.31326207    -0.53700
C159        C  0.59437181  0.59343595  0.33963180     0.09400
C160        C  0.59971889  0.60507038  0.38837790     0.20400
C161        C  0.61614261  0.68084675  0.36820868    -0.54400
C162        C  0.58932491  0.65472727  0.39369528     0.09500
C163        C  0.67587657  0.62317030  0.37320584    -0.54000
C164        C  0.64873200  0.59835832  0.39948780     0.10100
H165        H  0.62240853  0.61403434  0.27785661     0.14600
H166        H  0.57828326  0.58434583  0.40915309     0.00400
H167        H  0.61375098  0.71703580  0.36779740     0.14900
H168        H  0.71163580  0.61962954  0.37483689     0.14700
C169        C  0.84757257  0.84336323  0.13756214     0.86500
C170        C  0.82126855  0.87266313  0.10326671    -0.53700
C171        C  0.84792015  0.89945175  0.07830080     0.09400
C172        C  0.89697736  0.89370935  0.08982465     0.20400
C173        C  0.88168306  0.81725862  0.10775663    -0.54400
C174        C  0.90835719  0.84452244  0.08347199     0.09500
C175        C  0.87631551  0.87743775  0.16461721    -0.54000
C176        C  0.90218343  0.90429029  0.13883632     0.10100
H177        H  0.78555767  0.87166426  0.09877241     0.14600
H178        H  0.91803726  0.91495790  0.06926453     0.00400
H179        H  0.88366242  0.78141531  0.10422932     0.14900
H180        H  0.87565738  0.87998994  0.20036767     0.14700
C181        C  0.35072021  0.34494729  0.64148004     0.86500
C182        C  0.38475613  0.37421069  0.66794667    -0.53700
C183        C  0.41156861  0.39960352  0.64169596     0.09400
C184        C  0.40093139  0.39349513  0.59282172     0.20400
C185        C  0.32482187  0.37878514  0.61125708    -0.54400
C186        C  0.35197700  0.40490799  0.58616366     0.09500
C187        C  0.37948776  0.31778316  0.60726031    -0.54000
C188        C  0.40602429  0.34409336  0.58173296     0.10100
H189        H  0.38704765  0.37451119  0.70369059     0.14600
H190        H  0.42237998  0.41419275  0.57216202     0.00400
H191        H  0.28886154  0.38114695  0.60929229     0.14900
H192        H  0.37716195  0.28213804  0.60140834     0.14700
C193        C  0.15227894  0.15261472  0.84049880     0.86500
C194        C  0.12235690  0.17926802  0.87370576    -0.53700
C195        C  0.09643432  0.15264247  0.89966100     0.09400
C196        C  0.10268000  0.10323284  0.88903013     0.20400
C197        C  0.17858507  0.11803116  0.86973024    -0.54400
C198        C  0.15174434  0.09210927  0.89545441     0.09500
C199        C  0.11930173  0.12200820  0.81381806    -0.54000
C200        C  0.09251247  0.09667302  0.84005028     0.10100
H201        H  0.12228479  0.21543958  0.87635005     0.14600
H202        H  0.08152421  0.08227743  0.90978386     0.00400
H203        H  0.21416661  0.11312631  0.86884095     0.14900
H204        H  0.11814025  0.11946876  0.77818340     0.14700
C205        C  0.34685221  0.65114291  0.34027590     0.86500
C206        C  0.38107697  0.62235738  0.31371006    -0.53700
C207        C  0.40834029  0.59739618  0.33979547     0.09400
C208        C  0.39821446  0.60363105  0.38884833     0.20400
C209        C  0.32170588  0.61697199  0.37085753    -0.54400
C210        C  0.34953151  0.59129202  0.39570116     0.09500
C211        C  0.37545761  0.67892379  0.37410664    -0.54000
C212        C  0.40259085  0.65318670  0.39974064     0.10100
H213        H  0.38295839  0.62176411  0.27789495     0.14600
H214        H  0.42022550  0.58348414  0.40955909     0.00400
H215        H  0.28594635  0.61410636  0.37376479     0.14900
H216        H  0.37309262  0.71479193  0.37859883     0.14700
C217        C  0.15032427  0.84613846  0.14147266     0.86500
C218        C  0.11637819  0.87653542  0.16727696    -0.53700
C219        C  0.08982970  0.90132255  0.14033873     0.09400
C220        C  0.10121076  0.89473935  0.09169718     0.20400
C221        C  0.12150570  0.81896554  0.10777508    -0.54400
C222        C  0.09585218  0.84517830  0.08119082     0.09500
C223        C  0.17685220  0.88073363  0.11254655    -0.54000
C224        C  0.15029893  0.90624048  0.08611891     0.10100
H225        H  0.11447351  0.87980906  0.20277444     0.14600
H226        H  0.08024917  0.91551744  0.07057959     0.00400
H227        H  0.12202243  0.78279767  0.10520055     0.14900
H228        H  0.21256763  0.88528682  0.11370012     0.14700
C229        C  0.65200617  0.34799203  0.33880552     0.86500
C230        C  0.61804200  0.37711863  0.31210359    -0.53700
C231        C  0.59108416  0.40260584  0.33819185     0.09400
C232        C  0.60132077  0.39649394  0.38716807     0.20400
C233        C  0.67761605  0.38194746  0.36917604    -0.54400
C234        C  0.65018038  0.40820121  0.39375485     0.09500
C235        C  0.62310858  0.32083920  0.37270582    -0.54000
C236        C  0.59623834  0.34701680  0.39801633     0.10100
H237        H  0.61593442  0.37731440  0.27628538     0.14600
H238        H  0.57976211  0.41697432  0.40799757     0.00400
H239        H  0.71335486  0.38415268  0.37242941     0.14900
H240        H  0.62495483  0.28497752  0.37742055     0.14700
C241        C  0.84539603  0.15004687  0.13926193     0.86500
C242        C  0.81930575  0.11556080  0.10983039    -0.53700
C243        C  0.84630370  0.09001477  0.08390460     0.09400
C244        C  0.89529602  0.10147904  0.09018197     0.20400
C245        C  0.87871084  0.11946750  0.16554294    -0.54400
C246        C  0.90568169  0.09466766  0.13901979     0.09500
C247        C  0.87498678  0.17723679  0.10623121    -0.54000
C248        C  0.90109401  0.15102182  0.08000634     0.10100
H249        H  0.78361453  0.11042315  0.11076026     0.14600
H250        H  0.91653498  0.08080897  0.06921674     0.00400
H251        H  0.87997056  0.11649656  0.20116236     0.14900
H252        H  0.87480363  0.21342230  0.10397380     0.14700
C253        C  0.34906654  0.34592218  0.33766206     0.86500
C254        C  0.38261301  0.31901499  0.36749238    -0.53700
C255        C  0.40968564  0.34556072  0.39219752     0.09400
C256        C  0.39916312  0.39495887  0.38598954     0.20400
C257        C  0.32309716  0.37535376  0.37219338    -0.54400
C258        C  0.35019970  0.40142441  0.39754572     0.09500
C259        C  0.37837102  0.37982575  0.31103419    -0.54000
C260        C  0.40449099  0.40609633  0.33717017     0.10100
H261        H  0.38372076  0.28300582  0.37055343     0.14600
H262        H  0.42069995  0.41568159  0.40652127     0.00400
H263        H  0.28736165  0.37482402  0.37678390     0.14900
H264        H  0.37760065  0.38296161  0.27533850     0.14700
C265        C  0.14888626  0.15059186  0.14224934     0.86500
C266        C  0.11802088  0.11675425  0.16758565    -0.53700
C267        C  0.09343588  0.09040368  0.14034602     0.09400
C268        C  0.10048898  0.10186957  0.09182457     0.20400
C269        C  0.17595532  0.12130636  0.10870189    -0.54400
C270        C  0.14981591  0.09573347  0.08183834     0.09500
C271        C  0.11509002  0.17769306  0.11308918    -0.54000
C272        C  0.08964602  0.15141503  0.08639557     0.10100
H273        H  0.11400273  0.11477444  0.20305760     0.14600
H274        H  0.07974907  0.08107762  0.07049406     0.00400
H275        H  0.21198398  0.12118979  0.10669014     0.14900
H276        H  0.11103400  0.21368927  0.11433078     0.14700
O277        O  0.19954755  0.95156579  0.03675373    -0.74400
O278        O  0.20031616  0.04618575  0.94498557    -0.74400
O279        O  0.19942283  0.04529324  0.03762064    -0.74500
O280        O  0.20057336  0.95226965  0.94406248    -0.74500
O281        O  0.12823401  0.94735961  0.95567435    -0.74500
O282        O  0.12739512  0.04990868  0.02426090    -0.74400
O283        O  0.12823058  0.03330256  0.93928155    -0.74400
O284        O  0.12723060  0.96393753  0.04062301    -0.74500
Ni285      Ni  0.20377362  0.99881468  0.99086085     1.25400
Ni286      Ni  0.12585606  0.99862065  0.98993562     1.25400
C287        C  0.16117191  0.94264913  0.05372214     0.87800
C288        C  0.16226489  0.05508196  0.92729609     0.87700
C289        C  0.16109179  0.06282995  0.04591419     0.87700
C290        C  0.16253041  0.93453511  0.93492511     0.87900
O291        O  0.05120265  0.12944677  0.95726083    -0.74400
O292        O  0.94691569  0.12863345  0.02258438    -0.74400
O293        O  0.96628028  0.12863990  0.93832730    -0.74500
O294        O  0.03171632  0.12892763  0.04162552    -0.74500
O295        O  0.04532899  0.20120693  0.03647918    -0.74500
O296        O  0.95182091  0.20075931  0.94396003    -0.74400
O297        O  0.95191129  0.20083878  0.03658367    -0.74400
O298        O  0.04523099  0.20164963  0.94369943    -0.74500
Ni299      Ni  0.99905943  0.12695831  0.98994359     1.25400
Ni300      Ni  0.99855842  0.20506869  0.99018916     1.25400
C301        C  0.06350890  0.16347791  0.93557640     0.87800
C302        C  0.93407681  0.16241348  0.04437962     0.87700
C303        C  0.94404349  0.16233262  0.92614195     0.87700
C304        C  0.05348857  0.16280034  0.05414278     0.87900
O305        O  0.95127401  0.95005560  0.18822524    -0.74400
O306        O  0.04297367  0.04527882  0.18838199    -0.74400
O307        O  0.94983027  0.04393794  0.18794001    -0.74500
O308        O  0.04449708  0.95168801  0.18861629    -0.74500
O309        O  0.03230606  0.94674071  0.11682738    -0.74500
O310        O  0.96293232  0.04869500  0.11629810    -0.74400
O311        O  0.04829030  0.03267433  0.11663363    -0.74400
O312        O  0.94674817  0.96299687  0.11659074    -0.74500
Ni313      Ni  0.99710228  0.99776051  0.19211166     1.25400
Ni314      Ni  0.99757057  0.99774214  0.11469163     1.25400
C315        C  0.93412731  0.94116587  0.15013794     0.87800
C316        C  0.06061172  0.05417752  0.15051123     0.87700
C317        C  0.94138679  0.06149795  0.14990784     0.87700
C318        C  0.05358456  0.93416569  0.15070240     0.87900
O319        O  0.87110692  0.94571746  0.02164626    -0.74400
O320        O  0.87101942  0.04993537  0.95576505    -0.74400
O321        O  0.87013669  0.03120658  0.04026218    -0.74500
O322        O  0.87163023  0.96445445  0.93722035    -0.74500
O323        O  0.79968183  0.95034248  0.94181322    -0.74500
O324        O  0.79811992  0.04432017  0.03403091    -0.74400
O325        O  0.79923103  0.04403857  0.94150109    -0.74400
O326        O  0.79891682  0.95040355  0.03429530    -0.74500
Ni327      Ni  0.87293219  0.99783975  0.98875570     1.25400
Ni328      Ni  0.79509892  0.99725517  0.98790963     1.25400
C329        C  0.83713125  0.93261469  0.04267511     0.87800
C330        C  0.83737093  0.06226354  0.93376789     0.87700
C331        C  0.83602615  0.05301501  0.05206129     0.88900
C332        C  0.83806681  0.94235500  0.92447393     0.87900
O333        O  0.05290218  0.96425781  0.86154849    -0.74400
O334        O  0.95056180  0.03310245  0.86197093    -0.74400
O335        O  0.96765585  0.94726838  0.86165987    -0.74500
O336        O  0.03585968  0.04985099  0.86237880    -0.74500
O337        O  0.04878432  0.04575068  0.79068653    -0.74500
O338        O  0.95522018  0.95236128  0.78990601    -0.74400
O339        O  0.95545774  0.04600738  0.79029201    -0.74400
O340        O  0.04830530  0.95180717  0.78980895    -0.74500
Ni341      Ni  0.00175097  0.99860190  0.86378097     1.25400
Ni342      Ni  0.00198154  0.99902363  0.78636164     1.25400
C343        C  0.06558685  0.94274867  0.82777206     0.87800
C344        C  0.93773344  0.05455424  0.82820831     0.87700
C345        C  0.94649221  0.93459518  0.82778235     0.87700
C346        C  0.05717343  0.06313754  0.82884260     0.87900
O347        O  0.94982031  0.86842491  0.95490517    -0.74400
O348        O  0.05213524  0.86776758  0.02256772    -0.74400
O349        O  0.03499378  0.86813415  0.93798700    -0.74500
O350        O  0.96676260  0.86799143  0.03958201    -0.74500
O351        O  0.95340051  0.79565270  0.03372620    -0.74500
O352        O  0.04850382  0.79582103  0.94306333    -0.74400
O353        O  0.04655533  0.79549626  0.03586651    -0.74400
O354        O  0.95518410  0.79614958  0.94119996    -0.74500
Ni355      Ni  0.00095328  0.87002809  0.98878137     1.25400
Ni356      Ni  0.00092691  0.79184893  0.98843238     1.25400
C357        C  0.93749367  0.83458915  0.93301580     0.87800
C358        C  0.06415884  0.83385707  0.04449560     0.87700
C359        C  0.05690453  0.83424872  0.92563463     0.87700
C360        C  0.94483935  0.83392967  0.05142833     0.87900
C361        C  0.30537299  0.24933621  0.26441784     0.12700
C362        C  0.26360435  0.26516554  0.25129500    -0.00300
C363        C  0.25083995  0.30836882  0.26388259     0.14600
C364        C  0.27860816  0.33456011  0.29067377     0.24000
C365        C  0.31937978  0.31756822  0.30698930    -0.42300
C366        C  0.33334170  0.27541460  0.29086685     0.31100
C367        C  0.23402508  0.23656093  0.22386866    -0.00300
F368        F  0.21113902  0.32510572  0.25057774    -0.14600
F369        F  0.37496171  0.25988975  0.29825788    -0.15100
C370        C  0.21850233  0.19577419  0.24042075     0.14600
C371        C  0.19245232  0.16742071  0.21432249     0.24100
C372        C  0.17930764  0.18003146  0.17114484    -0.42200
C373        C  0.19763175  0.21991474  0.15388354     0.31000
C374        C  0.22379478  0.24814467  0.18019114     0.12700
F375        F  0.22913077  0.18299243  0.28207549    -0.14600
F376        F  0.19134625  0.23125114  0.11099351    -0.15100
F377        F  0.18311229  0.12652731  0.23092015    -0.17400
F378        F  0.24040685  0.28623105  0.16246819    -0.15900
F379        F  0.31973111  0.20876501  0.25045283    -0.16000
F380        F  0.26576264  0.37700434  0.29961890    -0.17400
C381        C  0.74729384  0.22244672  0.18089256     0.12700
C382        C  0.76253944  0.23680406  0.22232430    -0.00300
C383        C  0.80573721  0.22518685  0.23534991     0.14600
C384        C  0.83267181  0.19867683  0.20826091     0.24000
C385        C  0.81634072  0.18078020  0.16814540    -0.42300
C386        C  0.77400348  0.19551736  0.15381573     0.31100
C387        C  0.73421379  0.26534140  0.25121910    -0.00300
F388        F  0.82203147  0.23951875  0.27464053    -0.14600
F389        F  0.75883527  0.18577397  0.11279585    -0.15100
C390        C  0.69192632  0.25099293  0.26458827     0.14600
C391        C  0.66542022  0.27776779  0.29191741     0.24100
C392        C  0.68117070  0.31914018  0.30825312    -0.42200
C393        C  0.72261942  0.33450026  0.29209341     0.31000
C394        C  0.74898196  0.30758039  0.26482144     0.12700
F395        F  0.67626545  0.21065617  0.25142713    -0.14600
F396        F  0.73714322  0.37650015  0.30027837    -0.15100
F397        F  0.62376495  0.26332360  0.30123732    -0.17400
F398        F  0.78858811  0.32358981  0.25040334    -0.15900
F399        F  0.70692060  0.23578122  0.16590558    -0.16000
F400        F  0.87538686  0.19228704  0.22095429    -0.17400
C401        C  0.30571429  0.74610102  0.26408235     0.12700
C402        C  0.26396397  0.73057024  0.25046231    -0.00300
C403        C  0.25021675  0.68800588  0.26399546     0.14600
C404        C  0.27682597  0.66213906  0.29205839     0.24000
C405        C  0.31734613  0.67901832  0.30911648    -0.42300
C406        C  0.33241414  0.72043451  0.29227345     0.31100
C407        C  0.23471828  0.75871924  0.22222472    -0.00300
F408        F  0.21133286  0.67084756  0.24893307    -0.14600
F409        F  0.37363337  0.73590153  0.30185572    -0.15100
C410        C  0.24775868  0.77127876  0.17954396     0.14600
C411        C  0.22022029  0.79830385  0.15341526     0.24100
C412        C  0.17957571  0.81525779  0.17001997    -0.42200
C413        C  0.16533045  0.79931723  0.21173547     0.31000
C414        C  0.19292286  0.77226670  0.23763402     0.12700
F415        F  0.28676068  0.75629834  0.16261508    -0.14600
F416        F  0.12383627  0.80749941  0.22707134    -0.15100
F417        F  0.23299566  0.80660968  0.11128117    -0.17400
F418        F  0.17866198  0.75919238  0.27811132    -0.15900
F419        F  0.32057127  0.78654094  0.25036382    -0.16000
F420        F  0.26351216  0.61975403  0.30033830    -0.17400
C421        C  0.19165189  0.23015972  0.74594684     0.12700
C422        C  0.23492436  0.24108248  0.75913451    -0.00300
C423        C  0.25011523  0.22606393  0.80024917     0.14600
C424        C  0.22342774  0.19868537  0.82680518     0.24000
C425        C  0.18119358  0.18399283  0.81210027    -0.42300
C426        C  0.16480706  0.20272433  0.77232210     0.31100
C427        C  0.26447462  0.26770203  0.72990095    -0.00300
F428        F  0.29071794  0.23876192  0.81514354    -0.14600
F429        F  0.12231123  0.19587363  0.75914586    -0.15100
C430        C  0.25552157  0.31271592  0.72094747     0.14600
C431        C  0.28377410  0.33754590  0.69351091     0.24100
C432        C  0.32073234  0.31739312  0.67243855    -0.42200
C433        C  0.33093118  0.27277453  0.68421463     0.31000
C434        C  0.30278274  0.24827944  0.71193923     0.12700
F435        F  0.22002812  0.33307726  0.73988370    -0.14600
F436        F  0.36929508  0.25302323  0.67134552    -0.15100
F437        F  0.27544239  0.38178550  0.68877234    -0.17400
F438        F  0.31316207  0.20527902  0.72153758    -0.15900
F439        F  0.17543134  0.24577546  0.70711896    -0.16000
F440        F  0.23870871  0.18815799  0.86757225    -0.17400
C441        C  0.80157446  0.74698964  0.20998632     0.12700
C442        C  0.76112289  0.76482398  0.22464845    -0.00300
C443        C  0.74976656  0.80843201  0.21230423     0.14600
C444        C  0.77816446  0.83363881  0.18544680     0.24000
C445        C  0.81763328  0.81501483  0.16785990    -0.42300
C446        C  0.82967491  0.77164107  0.18235611     0.31100
C447        C  0.73204583  0.73858206  0.25464151    -0.00300
F448        F  0.71173129  0.82726917  0.22754203    -0.14600
F449        F  0.86967380  0.75344389  0.17259342    -0.15100
C450        C  0.74739042  0.72574987  0.29642468     0.14600
C451        C  0.72093363  0.69968252  0.32433809     0.24100
C452        C  0.67873775  0.68412731  0.31043000    -0.42200
C453        C  0.66211951  0.70071450  0.26990758     0.31000
C454        C  0.68878888  0.72675344  0.24206335     0.12700
F455        F  0.78782691  0.73958285  0.31078125    -0.14600
F456        F  0.61965801  0.69255150  0.25727435    -0.15100
F457        F  0.73616941  0.69209353  0.36573725    -0.17400
F458        F  0.67247187  0.73998828  0.20242481    -0.15900
F459        F  0.81418277  0.70547616  0.22285089    -0.16000
F460        F  0.76739046  0.87691375  0.17778898    -0.17400
C461        C  0.19318374  0.75178028  0.76092863     0.12700
C462        C  0.23652481  0.76527550  0.75046833    -0.00300
C463        C  0.25173195  0.80653232  0.76628033     0.14600
C464        C  0.22490864  0.83289828  0.79368323     0.24000
C465        C  0.18267247  0.81773124  0.80782959    -0.42300
C466        C  0.16631616  0.77788799  0.78853043     0.31100
C467        C  0.26560247  0.73659874  0.72262786    -0.00300
F468        F  0.29226991  0.82202451  0.75402588    -0.14600
F469        F  0.12374521  0.76454214  0.79478795    -0.15100
C470        C  0.25316502  0.72517915  0.67947599     0.14600
C471        C  0.28034193  0.69772869  0.65352854     0.24100
C472        C  0.31995493  0.67908871  0.67078549    -0.42200
C473        C  0.33359501  0.69346529  0.71321508     0.31000
C474        C  0.30642660  0.72116427  0.73889366     0.12700
F475        F  0.21521177  0.74188154  0.66181208    -0.14600
F476        F  0.37403130  0.68251238  0.72966384    -0.15100
F477        F  0.26842776  0.69122901  0.61085393    -0.17400
F478        F  0.32009525  0.73291505  0.77996892    -0.15900
F479        F  0.17681125  0.71296168  0.74452251    -0.16000
F480        F  0.23989351  0.87414148  0.80448747    -0.17400
C481        C  0.75178231  0.27278533  0.67926405     0.12700
C482        C  0.73595710  0.25780567  0.72019890    -0.00300
C483        C  0.69234474  0.26872167  0.73258943     0.14600
C484        C  0.66590855  0.29594163  0.70561034     0.24000
C485        C  0.68287473  0.31433888  0.66603058    -0.42300
C486        C  0.72540514  0.29973511  0.65207048     0.31100
C487        C  0.76481157  0.23027196  0.74946163    -0.00300
F488        F  0.67538835  0.25341094  0.77122003    -0.14600
F489        F  0.74095300  0.30875338  0.61107542    -0.15100
C490        C  0.80603165  0.24664721  0.76375041     0.14600
C491        C  0.83361936  0.22088242  0.79089268     0.24100
C492        C  0.81969852  0.17860674  0.80666497    -0.42200
C493        C  0.77961607  0.16113925  0.78930168     0.31000
C494        C  0.75232734  0.18690076  0.76172782     0.12700
F495        F  0.81985699  0.28784293  0.75116580    -0.14600
F496        F  0.76722991  0.11844675  0.79763620    -0.15100
F497        F  0.87489417  0.23681550  0.79925841    -0.17400
F498        F  0.71424449  0.16882809  0.74574796    -0.15900
F499        F  0.79253848  0.26000125  0.66481779    -0.16000
F500        F  0.62328157  0.30353412  0.71809899    -0.17400
C501        C  0.69037048  0.72912557  0.73488699     0.12700
C502        C  0.73475318  0.73772065  0.72374976    -0.00300
C503        C  0.75137025  0.72110570  0.68376659     0.14600
C504        C  0.72467979  0.69490330  0.65614102     0.24000
C505        C  0.68089908  0.68293539  0.66872467    -0.42300
C506        C  0.66350571  0.70294714  0.70738630     0.31100
C507        C  0.76315714  0.76564288  0.75285638    -0.00300
F508        F  0.79370534  0.73037101  0.67132579    -0.14600
F509        F  0.61998988  0.69859865  0.71816613    -0.15100
C510        C  0.77275988  0.75214199  0.79613043     0.14600
C511        C  0.79987224  0.77832774  0.82340339     0.24100
C512        C  0.81953323  0.81811960  0.80748151    -0.42200
C513        C  0.80624128  0.83322894  0.76520173     0.31000
C514        C  0.77952956  0.80673458  0.73794373     0.12700
F515        F  0.75591079  0.71333860  0.81203677    -0.14600
F516        F  0.81696375  0.87461803  0.75061512    -0.15100
F517        F  0.80523489  0.76524741  0.86590350    -0.17400
F518        F  0.76837639  0.82200181  0.69726106    -0.15900
F519        F  0.67256818  0.74729139  0.77192506    -0.16000
F520        F  0.74149661  0.68342538  0.61622270    -0.17400
loop_ 
_geom_bond_atom_site_label_1 
_geom_bond_atom_site_label_2 
_geom_bond_distance 
_geom_bond_site_symmetry_2 
_ccdc_geom_bond_type 
O1           Ni9   1.992       .  S
O1           C11   1.293       .  A
O2           Ni9   1.991       .  S
O2           C12   1.294       .  A
O3           Ni9   1.984       .  S
O3           C13   1.292       .  A
O4           Ni9   1.989       .  S
O4           C14   1.292       .  A
O5          Ni10   1.855       .  S
O5           C14   1.268       .  A
O6          Ni10   1.857       .  S
O6           C13   1.269       .  A
O7          Ni10   1.856       .  S
O7           C12   1.268       .  A
O8          Ni10   1.856       .  S
O8           C11   1.269       .  A
Ni9         Ni10   2.342       .  S
C11         C183   1.508       .  S
C12          C92   1.504       .  S
C13         C140   1.499       .  S
C14         C114   1.502       .  S
O15         Ni23   1.986       .  S
O15          C25   1.293       .  A
O16         Ni23   1.986       .  S
O16          C26   1.292       .  A
O17         Ni23   1.982       .  S
O17          C27   1.291       .  A
O18         Ni23   1.983       .  S
O18          C28   1.292       .  A
O19         Ni24   1.852       .  S
O19          C28   1.268       .  A
O20         Ni24   1.851       .  S
O20          C27   1.268       .  A
O21         Ni24   1.850       .  S
O21          C26   1.267       .  A
O22         Ni24   1.853       .  S
O22          C25   1.268       .  A
Ni23        Ni24   2.352       .  S
C25         C164   1.500       .  S
C26         C111   1.499       .  S
C27         C234   1.497       .  S
C28          C87   1.496       .  S
O29         Ni37   1.861       .  S
O29          C39   1.270       .  A
O30         Ni37   1.861       .  S
O30          C40   1.269       .  A
O31         Ni37   1.854       .  S
O31          C41   1.267       .  A
O32         Ni37   1.854       .  S
O32          C42   1.267       .  A
O33         Ni38   1.993       .  S
O33          C42   1.294       .  A
O34         Ni38   1.993       .  S
O34          C41   1.294       .  A
O35         Ni38   1.992       .  S
O35          C40   1.293       .  A
O36         Ni38   1.991       .  S
O36          C39   1.293       .  A
Ni37        Ni38   2.332       .  S
C39          C90   1.506       .  S
C40         C212   1.507       .  S
C41         C162   1.504       .  S
C42         C135   1.504       .  S
O43         Ni51   1.852       .  S
O43          C53   1.268       .  A
O44         Ni51   1.851       .  S
O44          C54   1.268       .  A
O45         Ni51   1.854       .  S
O45          C55   1.269       .  A
O46         Ni51   1.852       .  S
O46          C56   1.268       .  A
O47         Ni52   1.986       .  S
O47          C56   1.292       .  A
O48         Ni52   1.985       .  S
O48          C55   1.292       .  A
O49         Ni52   1.989       .  S
O49          C54   1.292       .  A
O50         Ni52   1.985       .  S
O50          C53   1.292       .  A
Ni51        Ni52   2.356       .  S
C53         C138   1.499       .  S
C54         C258   1.504       .  S
C55         C210   1.501       .  S
C56         C186   1.501       .  S
O57         Ni65   1.990       .  S
O57          C67   1.293       .  A
O58         Ni65   1.987       .  S
O58          C68   1.293       .  A
O59         Ni65   1.990       .  S
O59          C69   1.293       .  A
O60         Ni65   1.993       .  S
O60          C70   1.294       .  A
O61         Ni66   1.853       .  S
O61          C70   1.268       .  A
O62         Ni66   1.857       .  S
O62          C69   1.269       .  A
O63         Ni66   1.855       .  S
O63          C68   1.268       .  A
O64         Ni66   1.853       .  S
O64          C67   1.267       .  A
Ni65        Ni66   2.340       .  S
C67         C188   1.502       .  S
C68         C236   1.501       .  S
C69         C116   1.505       .  S
C70         C255   1.506       .  S
O71         Ni79   1.987       .  S
O71          C81   1.293       .  A
O72         Ni79   1.990       .  S
O72          C82   1.292       .  A
O73         Ni79   1.994       .  S
O73          C83   1.294       .  A
O74         Ni79   1.993       .  S
O74          C84   1.293       .  A
O75         Ni80   1.852       .  S
O75          C84   1.268       .  A
O76         Ni80   1.850       .  S
O76          C83   1.267       .  A
O77         Ni80   1.856       .  S
O77          C82   1.269       .  A
O78         Ni80   1.859       .  S
O78          C81   1.269       .  A
Ni79        Ni80   2.343       .  S
C81         C159   1.502       .  S
C82         C260   1.506       .  S
C83         C207   1.504       .  S
C84         C231   1.506       .  S
C85          C86   1.573       .  S
C85          C91   1.575       .  S
C85          C89   1.569       .  S
C85         C505   1.541       .  S
C86          H93   1.083       .  S
C86          C87   1.362       .  D
C87          C88   1.526       .  S
C88          C92   1.528       .  S
C88          C90   1.527       .  S
C88          H94   1.096       .  S
C89          H95   1.086       .  S
C89          C90   1.366       .  D
C91          H96   1.087       .  S
C91          C92   1.365       .  D
C97          C98   1.574       .  S
C97         C103   1.567       .  S
C97         C101   1.575       .  S
C97         C512   1.539       .  S
C98         H105   1.084       .  S
C98          C99   1.362       .  D
C99         C345   1.500       .  S
C99         C100   1.527       .  S
C100        C104   1.527       .  S
C100        C102   1.529       .  S
C100        H106   1.094       .  S
C101        H107   1.083       .  S
C101        C102   1.365       .  D
C102        C357   1.503       .  S
C103        H108   1.087       .  S
C103        C104   1.364       .  D
C104        C332   1.502       .  S
C109        C110   1.576       .  S
C109        C115   1.568       .  S
C109        C113   1.575       .  S
C109        C485   1.541       .  S
C110        H117   1.084       .  S
C110        C111   1.363       .  D
C111        C112   1.526       .  S
C112        C116   1.527       .  S
C112        C114   1.527       .  S
C112        H118   1.094       .  S
C113        H119   1.086       .  S
C113        C114   1.366       .  D
C115        H120   1.087       .  S
C115        C116   1.364       .  D
C121        C122   1.576       .  S
C121        C127   1.575       .  S
C121        C125   1.569       .  S
C121        C492   1.543       .  S
C122        H129   1.085       .  S
C122        C123   1.363       .  D
C123        C303   1.501       .  S
C123        C124   1.528       .  S
C124        C128   1.529       .  S
C124        C126   1.527       .  S
C124        H130   1.094       .  S
C125        H131   1.087       .  S
C125        C126   1.366       .  D
C126        C344   1.505       .  S
C127        H132   1.084       .  S
C127        C128   1.366       .  D
C128        C330   1.504       .  S
C133        C134   1.567       .  S
C133        C139   1.574       .  S
C133        C137   1.573       .  S
C133        C472   1.539       .  S
C134        H141   1.087       .  S
C134        C135   1.364       .  D
C135        C136   1.529       .  S
C136        C140   1.527       .  S
C136        C138   1.527       .  S
C136        H142   1.095       .  S
C137        H143   1.087       .  S
C137        C138   1.364       .  D
C139        H144   1.083       .  S
C139        C140   1.364       .  D
C145        C146   1.578       .  S
C145        C151   1.568       .  S
C145        C149   1.575       .  S
C145        C465   1.542       .  S
C146        H153   1.085       .  S
C146        C147   1.366       .  D
C147        C290   1.506       .  S
C147        C148   1.526       .  S
C148        C152   1.526       .  S
C148        C150   1.528       .  S
C148        H154   1.093       .  S
C149        H155   1.084       .  S
C149        C150   1.364       .  D
C150        C359   1.502       .  S
C151        H156   1.086       .  S
C151        C152   1.365       .  D
C152        C343   1.504       .  S
C157        C158   1.574       .  S
C157        C163   1.575       .  S
C157        C161   1.567       .  S
C157        C452   1.540       .  S
C158        H165   1.084       .  S
C158        C159   1.365       .  D
C159        C160   1.527       .  S
C160        C164   1.527       .  S
C160        C162   1.529       .  S
C160        H166   1.095       .  S
C161        H167   1.087       .  S
C161        C162   1.365       .  D
C163        H168   1.083       .  S
C163        C164   1.363       .  D
C169        C170   1.575       .  S
C169        C175   1.570       .  S
C169        C173   1.576       .  S
C169        C445   1.543       .  S
C170        H177   1.084       .  S
C170        C171   1.365       .  D
C171        C329   1.504       .  S
C171        C172   1.528       .  S
C172        C176   1.527       .  S
C172        C174   1.526       .  S
C172        H178   1.094       .  S
C173        H179   1.081       .  S
C173        C174   1.362       .  D
C174        C360   1.500       .  S
C175        H180   1.087       .  S
C175        C176   1.366       .  D
C176        C315   1.505       .  S
C181        C182   1.570       .  S
C181        C187   1.577       .  S
C181        C185   1.574       .  S
C181        C432   1.543       .  S
C182        H189   1.086       .  S
C182        C183   1.366       .  D
C183        C184   1.527       .  S
C184        C188   1.526       .  S
C184        C186   1.527       .  S
C184        H190   1.093       .  S
C185        H191   1.087       .  S
C185        C186   1.364       .  D
C187        H192   1.085       .  S
C187        C188   1.364       .  D
C193        C194   1.569       .  S
C193        C199   1.576       .  S
C193        C197   1.577       .  S
C193        C425   1.544       .  S
C194        H201   1.087       .  S
C194        C195   1.366       .  D
C195        C301   1.508       .  S
C195        C196   1.527       .  S
C196        C200   1.529       .  S
C196        C198   1.527       .  S
C196        H202   1.094       .  S
C197        H203   1.082       .  S
C197        C198   1.366       .  D
C198        C288   1.505       .  S
C199        H204   1.084       .  S
C199        C200   1.364       .  D
C200        C346   1.503       .  S
C205        C206   1.566       .  S
C205        C211   1.577       .  S
C205        C209   1.576       .  S
C205        C405   1.543       .  S
C206        H213   1.087       .  S
C206        C207   1.364       .  D
C207        C208   1.529       .  S
C208        C212   1.527       .  S
C208        C210   1.526       .  S
C208        H214   1.095       .  S
C209        H215   1.084       .  S
C209        C210   1.365       .  D
C211        H216   1.086       .  S
C211        C212   1.366       .  D
C217        C218   1.577       .  S
C217        C223   1.576       .  S
C217        C221   1.568       .  S
C217        C412   1.544       .  S
C218        H225   1.082       .  S
C218        C219   1.363       .  D
C219        C318   1.503       .  S
C219        C220   1.527       .  S
C220        C224   1.527       .  S
C220        C222   1.528       .  S
C220        H226   1.094       .  S
C221        H227   1.087       .  S
C221        C222   1.365       .  D
C222        C358   1.505       .  S
C223        H228   1.085       .  S
C223        C224   1.366       .  D
C224        C287   1.505       .  S
C229        C230   1.570       .  S
C229        C235   1.574       .  S
C229        C233   1.574       .  S
C229        C392   1.541       .  S
C230        H237   1.088       .  S
C230        C231   1.366       .  D
C231        C232   1.528       .  S
C232        C236   1.527       .  S
C232        C234   1.526       .  S
C232        H238   1.094       .  S
C233        H239   1.083       .  S
C233        C234   1.362       .  D
C235        H240   1.086       .  S
C235        C236   1.363       .  D
C241        C242   1.575       .  S
C241        C247   1.569       .  S
C241        C245   1.575       .  S
C241        C385   1.543       .  S
C242        H249   1.086       .  S
C242        C243   1.365       .  D
C243        C331   1.502       .  S
C243        C244   1.527       .  S
C244        C248   1.527       .  S
C244        C246   1.527       .  S
C244        H250   1.094       .  S
C245        H251   1.084       .  S
C245        C246   1.363       .  D
C246        C317   1.501       .  S
C247        H252   1.087       .  S
C247        C248   1.366       .  D
C248        C302   1.507       .  S
C253        C254   1.578       .  S
C253        C259   1.570       .  S
C253        C257   1.576       .  S
C253        C365   1.545       .  S
C254        H261   1.084       .  S
C254        C255   1.363       .  D
C255        C256   1.526       .  S
C256        C260   1.526       .  S
C256        C258   1.528       .  S
C256        H262   1.093       .  S
C257        H263   1.085       .  S
C257        C258   1.367       .  D
C259        H264   1.087       .  S
C259        C260   1.366       .  D
C265        C266   1.576       .  S
C265        C271   1.574       .  S
C265        C269   1.571       .  S
C265        C372   1.544       .  S
C266        H273   1.084       .  S
C266        C267   1.362       .  D
C267        C316   1.501       .  S
C267        C268   1.526       .  S
C268        C272   1.530       .  S
C268        C270   1.527       .  S
C268        H274   1.094       .  S
C269        H275   1.087       .  S
C269        C270   1.368       .  D
C270        C289   1.508       .  S
C271        H276   1.087       .  S
C271        C272   1.365       .  D
C272        C304   1.503       .  S
O277       Ni285   1.990   1_554  S
O277        C287   1.293       .  A
O278       Ni285   1.991   1_545  S
O278        C288   1.293       .  A
O279       Ni285   1.991   1_544  S
O279        C289   1.293       .  A
O280       Ni285   1.992       .  S
O280        C290   1.293       .  A
O281       Ni286   1.856       .  S
O281        C290   1.269       .  A
O282       Ni286   1.857   1_544  S
O282        C289   1.269       .  A
O283       Ni286   1.856   1_545  S
O283        C288   1.269       .  A
O284       Ni286   1.856   1_554  S
O284        C287   1.269       .  A
Ni285      Ni286   2.347       .  S
O291       Ni299   1.858   1_455  S
O291        C301   1.269       .  A
O292       Ni299   1.856   1_554  S
O292        C302   1.269       .  A
O293       Ni299   1.851       .  S
O293        C303   1.267       .  A
O294       Ni299   1.851   1_454  S
O294        C304   1.267       .  A
O295       Ni300   1.992   1_454  S
O295        C304   1.293       .  A
O296       Ni300   1.991       .  S
O296        C303   1.293       .  A
O297       Ni300   1.992   1_554  S
O297        C302   1.293       .  A
O298       Ni300   1.993   1_455  S
O298        C301   1.293       .  A
Ni299      Ni300   2.342       .  S
O305       Ni313   1.991       .  S
O305        C315   1.293       .  A
O306       Ni313   1.988   1_445  S
O306        C316   1.293       .  A
O307       Ni313   1.989   1_545  S
O307        C317   1.293       .  A
O308       Ni313   1.989   1_455  S
O308        C318   1.293       .  A
O309       Ni314   1.853   1_455  S
O309        C318   1.268       .  A
O310       Ni314   1.850   1_545  S
O310        C317   1.267       .  A
O311       Ni314   1.853   1_445  S
O311        C316   1.268       .  A
O312       Ni314   1.852       .  S
O312        C315   1.268       .  A
Ni313      Ni314   2.347       .  S
O319       Ni327   1.855   1_554  S
O319        C329   1.268       .  A
O320       Ni327   1.856   1_545  S
O320        C330   1.268       .  A
O321       Ni327   1.856   1_544  S
O321        C331   1.269       .  A
O322       Ni327   1.855       .  S
O322        C332   1.269       .  A
O323       Ni328   1.987       .  S
O323        C332   1.292       .  A
O324       Ni328   1.988   1_544  S
O324        C331   1.292       .  A
O325       Ni328   1.991   1_545  S
O325        C330   1.293       .  A
O326       Ni328   1.991   1_554  S
O326        C329   1.293       .  A
Ni327      Ni328   2.344       .  S
O333       Ni341   1.854       .  S
O333        C343   1.269       .  A
O334       Ni341   1.857   1_645  S
O334        C344   1.269       .  A
O335       Ni341   1.851   1_655  S
O335        C345   1.267       .  A
O336       Ni341   1.849   1_545  S
O336        C346   1.267       .  A
O337       Ni342   1.992   1_545  S
O337        C346   1.293       .  A
O338       Ni342   1.988   1_655  S
O338        C345   1.293       .  A
O339       Ni342   1.990   1_645  S
O339        C344   1.293       .  A
O340       Ni342   1.990       .  S
O340        C343   1.292       .  A
Ni341      Ni342   2.347       .  S
O347       Ni355   1.852   1_655  S
O347        C357   1.267       .  A
O348       Ni355   1.852   1_554  S
O348        C358   1.268       .  A
O349       Ni355   1.851       .  S
O349        C359   1.267       .  A
O350       Ni355   1.853   1_654  S
O350        C360   1.268       .  A
O351       Ni356   1.986   1_654  S
O351        C360   1.292       .  A
O352       Ni356   1.989       .  S
O352        C359   1.293       .  A
O353       Ni356   1.992   1_554  S
O353        C358   1.293       .  A
O354       Ni356   1.991   1_655  S
O354        C357   1.293       .  A
Ni355      Ni356   2.344       .  S
C361        C362   1.402       .  A
C361        C366   1.401       .  A
C361        F379   1.358       .  S
C362        C363   1.403       .  A
C362        C367   1.490       .  S
C363        C364   1.405       .  A
C363        F368   1.358       .  S
C364        C365   1.418       .  A
C364        F380   1.357       .  S
C365        C366   1.418       .  A
C366        F369   1.356       .  S
C367        C370   1.402       .  A
C367        C374   1.403       .  A
C370        C371   1.401       .  A
C370        F375   1.358       .  S
C371        C372   1.419       .  A
C371        F377   1.355       .  S
C372        C373   1.417       .  A
C373        C374   1.405       .  A
C373        F376   1.357       .  S
C374        F378   1.358       .  S
C381        C382   1.405       .  A
C381        C386   1.404       .  A
C381        F399   1.358       .  S
C382        C383   1.403       .  A
C382        C387   1.492       .  S
C383        C384   1.401       .  A
C383        F388   1.358       .  S
C384        C385   1.417       .  A
C384        F400   1.356       .  S
C385        C386   1.418       .  A
C386        F389   1.357       .  S
C387        C390   1.404       .  A
C387        C394   1.404       .  A
C390        C391   1.402       .  A
C390        F395   1.358       .  S
C391        C392   1.417       .  A
C391        F397   1.357       .  S
C392        C393   1.418       .  A
C393        C394   1.401       .  A
C393        F396   1.356       .  S
C394        F398   1.358       .  S
C401        C402   1.403       .  A
C401        C406   1.403       .  A
C401        F419   1.358       .  S
C402        C403   1.403       .  A
C402        C407   1.490       .  S
C403        C404   1.403       .  A
C403        F408   1.358       .  S
C404        C405   1.419       .  A
C404        F420   1.356       .  S
C405        C406   1.417       .  A
C406        F409   1.357       .  S
C407        C410   1.404       .  A
C407        C414   1.402       .  A
C410        C411   1.404       .  A
C410        F415   1.358       .  S
C411        C412   1.417       .  A
C411        F417   1.357       .  S
C412        C413   1.419       .  A
C413        C414   1.402       .  A
C413        F416   1.355       .  S
C414        F418   1.358       .  S
C421        C422   1.402       .  A
C421        C426   1.404       .  A
C421        F439   1.358       .  S
C422        C423   1.402       .  A
C422        C427   1.488       .  S
C423        C424   1.403       .  A
C423        F428   1.358       .  S
C424        C425   1.418       .  A
C424        F440   1.356       .  S
C425        C426   1.419       .  A
C426        F429   1.356       .  S
C427        C430   1.403       .  A
C427        C434   1.402       .  A
C430        C431   1.404       .  A
C430        F435   1.358       .  S
C431        C432   1.418       .  A
C431        F437   1.357       .  S
C432        C433   1.418       .  A
C433        C434   1.402       .  A
C433        F436   1.355       .  S
C434        F438   1.358       .  S
C441        C442   1.402       .  A
C441        C446   1.402       .  A
C441        F459   1.358       .  S
C442        C443   1.402       .  A
C442        C447   1.488       .  S
C443        C444   1.402       .  A
C443        F448   1.358       .  S
C444        C445   1.417       .  A
C444        F460   1.357       .  S
C445        C446   1.420       .  A
C446        F449   1.355       .  S
C447        C450   1.402       .  A
C447        C454   1.403       .  A
C450        C451   1.401       .  A
C450        F455   1.358       .  S
C451        C452   1.418       .  A
C451        F457   1.356       .  S
C452        C453   1.417       .  A
C453        C454   1.403       .  A
C453        F456   1.357       .  S
C454        F458   1.358       .  S
C461        C462   1.403       .  A
C461        C466   1.402       .  A
C461        F479   1.358       .  S
C462        C463   1.403       .  A
C462        C467   1.489       .  S
C463        C464   1.402       .  A
C463        F468   1.358       .  S
C464        C465   1.417       .  A
C464        F480   1.356       .  S
C465        C466   1.418       .  A
C466        F469   1.356       .  S
C467        C470   1.403       .  A
C467        C474   1.403       .  A
C470        C471   1.402       .  A
C470        F475   1.358       .  S
C471        C472   1.417       .  A
C471        F477   1.357       .  S
C472        C473   1.417       .  A
C473        C474   1.401       .  A
C473        F476   1.356       .  S
C474        F478   1.358       .  S
C481        C482   1.403       .  A
C481        C486   1.401       .  A
C481        F499   1.358       .  S
C482        C483   1.404       .  A
C482        C487   1.491       .  S
C483        C484   1.403       .  A
C483        F488   1.358       .  S
C484        C485   1.416       .  A
C484        F500   1.357       .  S
C485        C486   1.418       .  A
C486        F489   1.355       .  S
C487        C490   1.403       .  A
C487        C494   1.404       .  A
C490        C491   1.402       .  A
C490        F495   1.358       .  S
C491        C492   1.418       .  A
C491        F497   1.356       .  S
C492        C493   1.417       .  A
C493        C494   1.404       .  A
C493        F496   1.357       .  S
C494        F498   1.358       .  S
C501        C502   1.402       .  A
C501        C506   1.402       .  A
C501        F519   1.358       .  S
C502        C503   1.402       .  A
C502        C507   1.487       .  S
C503        C504   1.402       .  A
C503        F508   1.358       .  S
C504        C505   1.419       .  A
C504        F520   1.356       .  S
C505        C506   1.417       .  A
C506        F509   1.357       .  S
C507        C510   1.403       .  A
C507        C514   1.402       .  A
C510        C511   1.402       .  A
C510        F515   1.358       .  S
C511        C512   1.417       .  A
C511        F517   1.357       .  S
C512        C513   1.417       .  A
C513        C514   1.400       .  A
C513        F516   1.356       .  S
C514        F518   1.358       .  S
