geometry optimzed in LAMMPS
_audit_creation_date              2020-12-01 
_audit_creation_method            'lammps2cif' 
_symmetry_space_group_name_H-M    'P1' 
_symmetry_Int_Tables_number       1 
_symmetry_cell_setting            triclinic 
loop_ 
_symmetry_equiv_pos_as_xyz 
  x,y,z 
_cell_length_a                    33.91922627 
_cell_length_b                    32.1106010282186 
_cell_length_c                    31.209668321633558 
_cell_angle_alpha                 85.45413137942498 
_cell_angle_beta                  97.29578361130291 
_cell_angle_gamma                 89.9357834150878 
loop_ 
_atom_site_label 
_atom_site_type_symbol 
_atom_site_fract_x 
_atom_site_fract_y 
_atom_site_fract_z 
_atom_site_charge 
C1          C  0.39062530  0.36331872  0.37744995    -0.03100
C2          C  0.11199064  0.14861098  0.12715258    -0.03100
N3          N  0.02434372  0.54727996  0.40947807    -0.06700
N4          N  0.04867498  0.54895575  0.37985735    -0.58800
N5          N  0.44669093  0.07861874  0.44937661    -0.06400
N6          N  0.41446200  0.10164693  0.43935764    -0.60900
N7          N  0.97795169  0.10163532  0.46237000    -0.06000
N8          N  0.96674264  0.14138196  0.46006947    -0.58800
N9          N  0.99328809  0.52451097  0.39730879    -0.05600
N10         N  0.99598175  0.51026647  0.35922952    -0.61300
C11         C  0.03047439  0.52642460  0.34855473     0.95500
C12         C  0.92707833  0.14056614  0.44587642     0.95300
N13         N  0.41132108  0.98031567  0.52071793    -0.06900
N14         N  0.39437252  0.99841771  0.05079837    -0.60000
N15         N  0.44592713  0.44543164  0.43049297    -0.05000
N16         N  0.42749195  0.42976343  0.39577841    -0.60600
N17         N  0.44773641  0.41791422  0.46419860    -0.06900
N18         N  0.42885249  0.38318141  0.45242747    -0.59700
N19         N  0.40352552  0.00344722  0.48381585    -0.04600
N20         N  0.38073392  0.03537783  0.48846637    -0.60700
Mn21       Mn  0.44750664  0.01242237  0.43929863     1.18400
C22         C  0.37586253  0.03205366  0.53043963     0.97600
C23         C  0.41628346  0.39100023  0.40906135     0.98200
N24         N  0.05460479  0.09428119  0.04045660    -0.06900
N25         N  0.07347718  0.12899948  0.05226773    -0.63200
N26         N  0.09945349  0.50840813  0.02176900    -0.05700
N27         N  0.12232710  0.47649987  0.01726463    -0.63900
N28         N  0.09189774  0.53116401  0.48534732    -0.06400
N29         N  0.10879742  0.51374115  0.45499742    -0.63500
N30         N  0.05662292  0.06662404  0.07406460    -0.05300
N31         N  0.07515661  0.08220379  0.10876692    -0.64200
Mn32       Mn  0.03771141  0.07107835  0.47405548     1.10700
C33         C  0.08624355  0.12102854  0.09555970     0.98800
C34         C  0.12734557  0.47982598  0.97531996     0.98900
N35         N  0.52457022  0.41070883  0.04246488    -0.06400
N36         N  0.53547004  0.37088726  0.04468901    -0.61800
N37         N  0.50887380  0.98667735  0.10818829    -0.05800
N38         N  0.50608343  0.00007226  0.14662555    -0.58500
N39         N  0.47816878  0.96353026  0.09581887    -0.07100
N40         N  0.45402069  0.96069936  0.12559604    -0.61400
N41         N  0.55547747  0.43335460  0.05579023    -0.06100
N42         N  0.08832352  0.41057502  0.06619504    -0.58600
Mn43       Mn  0.46495319  0.44144855  0.03068679     1.20200
Mn44       Mn  0.05527506  0.49962657  0.06606415     1.10100
Cl45       Cl  0.50134410  0.00594517  0.50263824    -0.86500
C46         C  0.57513838  0.37136959  0.05881677     0.95800
C47         C  0.47191897  0.98298478  0.15725020     0.95600
N48         N  0.31028518  0.18349835  0.54855894    -0.06700
N49         N  0.32303097  0.14478709  0.55529352    -0.58800
N50         N  0.30664067  0.27414532  0.08732530    -0.06400
N51         N  0.31984188  0.30024887  0.11583918    -0.60900
N52         N  0.28125132  0.24801652  0.10354990    -0.06000
N53         N  0.27814868  0.25524085  0.14417300    -0.58800
N54         N  0.33673155  0.20796979  0.53179227    -0.05600
N55         N  0.36837566  0.18508390  0.52702072    -0.61300
C56         C  0.35897972  0.14575319  0.54224410     0.95500
C57         C  0.30203660  0.28845084  0.15088514     0.95300
N58         N  0.27787386  0.35759622  0.98470015    -0.06900
N59         N  0.26660368  0.39589036  0.99093613    -0.59400
N60         N  0.34145802  0.29054350  0.45371995    -0.05000
N61         N  0.37495648  0.30844514  0.44246817    -0.60600
N62         N  0.31191271  0.30059273  0.42289280    -0.06900
N63         N  0.32555163  0.32339195  0.39066101    -0.59700
N64         N  0.30689149  0.34458325  0.01467807    -0.04600
N65         N  0.31653871  0.37377689  0.04151797    -0.60700
Mn66       Mn  0.32437095  0.27830444  0.02168296     1.18400
C67         C  0.29145988  0.40580403  0.02618922     0.97600
C68         C  0.36513951  0.32877188  0.40207762     0.98200
N69         N  0.19054545  0.21168327  0.08183723    -0.06900
N70         N  0.17694039  0.18880213  0.11403822    -0.63200
N71         N  0.19551738  0.16776542  0.48978328    -0.05700
N72         N  0.18563178  0.13849999  0.46310041    -0.63900
N73         N  0.22452577  0.15469177  0.51973716    -0.06400
N74         N  0.23553036  0.11627812  0.51370089    -0.63500
N75         N  0.16100815  0.22162875  0.05098073    -0.05300
N76         N  0.12756259  0.20354461  0.06214902    -0.64200
Mn77       Mn  0.25195005  0.20050850  0.06428104     1.10700
C78         C  0.13739060  0.18324778  0.10254862     0.98800
C79         C  0.21054555  0.10636689  0.47856271     0.98900
N80         N  0.22105689  0.26452261  0.40103375    -0.06400
N81         N  0.22406040  0.25736377  0.36036304    -0.61800
N82         N  0.16584200  0.30408718  0.97289998    -0.05800
N83         N  0.13429346  0.32696329  0.97796048    -0.58500
N84         N  0.19217797  0.32852657  0.95588445    -0.07100
N85         N  0.17942741  0.36722477  0.94923977    -0.61400
N86         N  0.19567755  0.23839164  0.41727766    -0.06100
N87         N  0.18241531  0.21233360  0.38874836    -0.58600
Mn88       Mn  0.25051937  0.31185575  0.44045421     1.20200
Mn89       Mn  0.17807870  0.23403660  0.48299517     1.10100
Cl90       Cl  0.25119135  0.25657956  0.00201542    -0.86500
C91         C  0.20014592  0.22416444  0.35366504     0.95800
C92         C  0.14361641  0.36626403  0.96264499     0.95600
N93         N  0.43533367  0.30176400  0.18178565    -0.06700
N94         N  0.39652648  0.29986752  0.17074355    -0.58800
N95         N  0.53216407  0.33021299  0.19189054    -0.06400
N96         N  0.06640735  0.34923200  0.18174935    -0.60900
N97         N  0.52391151  0.30026302  0.16580463    -0.06000
N98         N  0.05192046  0.29808364  0.13808542    -0.58800
N99         N  0.44300746  0.33189654  0.20789580    -0.05600
N100        N  0.41010562  0.35087675  0.21470514    -0.61300
C101        C  0.38139994  0.33054616  0.19149733     0.95500
C102        C  0.07785131  0.32779331  0.14949007     0.95300
N103        N  0.06443594  0.30605778  0.32057953    -0.06900
N104        N  0.10323662  0.30016716  0.32932604    -0.59400
N105        N  0.46423008  0.33559198  0.30668311    -0.05000
N106        N  0.43307668  0.35868210  0.31330047    -0.60600
N107        N  0.47272077  0.30694643  0.33907738    -0.06900
N108        N  0.44752765  0.31050689  0.36830693    -0.59700
N109        N  0.05607650  0.33487931  0.28841135    -0.04600
N110        N  0.08902547  0.34877234  0.27453182    -0.60700
Mn111      Mn  0.49874356  0.33538410  0.24878227     1.18400
C112        C  0.11797101  0.32682099  0.30016887     0.97600
C113        C  0.42206587  0.34269146  0.35188247     0.98200
N114        N  0.03005549  0.20498534  0.16582489    -0.06900
N115        N  0.05526692  0.20150535  0.13659811    -0.63200
N116        N  0.44605087  0.17695732  0.21751563    -0.05700
N117        N  0.41302751  0.16381593  0.23185043    -0.63900
N118        N  0.43780004  0.20545685  0.18500097    -0.06400
N119        N  0.39904660  0.21173551  0.17639087    -0.63500
N120        N  0.03844123  0.17616625  0.19806824    -0.05300
N121        N  0.06952846  0.15302169  0.19134270    -0.64200
Mn122      Mn  0.48093656  0.25318575  0.17297382     1.10700
C123        C  0.08062879  0.16918486  0.15286317     0.98800
C124        C  0.38419495  0.18582969  0.20607468     0.98900
N125        N  0.97836227  0.21099995  0.33882977    -0.06400
N126        N  0.45098703  0.21412992  0.36742490    -0.61800
N127        N  0.05949273  0.17963315  0.29696211    -0.05800
N128        N  0.09249473  0.16087253  0.29009820    -0.58500
N129        N  0.06700987  0.20969298  0.32320959    -0.07100
N130        N  0.10579628  0.21174799  0.33428443    -0.61400
N131        N  0.97031107  0.18101547  0.31274427    -0.06100
N132        N  0.43635073  0.16274738  0.32410959    -0.58600
Mn133      Mn  0.02130427  0.25816047  0.33214939     1.20200
Mn134      Mn  0.00382617  0.17618107  0.25590483     1.10100
Cl135      Cl  0.50100833  0.25561641  0.25366171    -0.86500
C136        C  0.42497818  0.18442786  0.35622613     0.95800
C137        C  0.12108726  0.18124819  0.31343069     0.95600
N138        N  0.30528441  0.42729412  0.32073829    -0.06700
N139        N  0.32007616  0.39107739  0.33974391    -0.58800
N140        N  0.28610966  0.02061912  0.35697329    -0.06400
N141        N  0.29021587  0.04573829  0.38862854    -0.60900
N142        N  0.25678493  0.99466965  0.36139785    -0.06000
N143        N  0.23963976  0.00199682  0.39594060    -0.58800
N144        N  0.33419081  0.45356228  0.31549879    -0.05600
N145        N  0.36901977  0.43494473  0.33078006    -0.61300
C146        C  0.36042884  0.39509316  0.34622912     0.95500
C147        C  0.26127064  0.03370963  0.41278768     0.95300
N148        N  0.27642240  0.10202577  0.24541046    -0.06900
N149        N  0.27951414  0.14249094  0.23724395    -0.59400
N150        N  0.34377274  0.52622794  0.23866386    -0.05000
N151        N  0.38136080  0.51954855  0.23429758    -0.60600
N152        N  0.32388799  0.54148298  0.20162631    -0.06900
N153        N  0.34769220  0.54542858  0.17141625    -0.59700
N154        N  0.29890467  0.08916611  0.28177806    -0.04600
N155        N  0.31821226  0.12125055  0.29781060    -0.60700
Mn156      Mn  0.31676511  0.02245665  0.29897269     1.18400
C157        C  0.30656982  0.15422930  0.26923597     0.97600
C158        C  0.38315196  0.53182237  0.19223262     0.98200
N159        N  0.17883398  0.97109434  0.30303124    -0.06900
N160        N  0.15513686  0.96838281  0.33336484    -0.63200
N161        N  0.20319385  0.42303866  0.22296791    -0.05700
N162        N  0.18336622  0.39108569  0.20731723    -0.63900
N163        N  0.22603601  0.41006049  0.25905818    -0.06400
N164        N  0.22275403  0.36963601  0.26731039    -0.63500
N165        N  0.15911310  0.98615047  0.26583195    -0.05300
N166        N  0.12173940  0.99395334  0.27019318    -0.64200
Mn167      Mn  0.24157633  0.45002572  0.31132383     1.10700
C168        C  0.11991623  0.98252955  0.31242529     0.98800
C169        C  0.19513827  0.35806790  0.23580066     0.98900
N170        N  0.24544670  0.51770676  0.14359478    -0.06400
N171        N  0.26254555  0.51022212  0.10905193    -0.61800
N172        N  0.16856840  0.05823096  0.18871816    -0.05800
N173        N  0.13371565  0.07683478  0.17352177    -0.58500
N174        N  0.19742833  0.08455620  0.18351737    -0.07100
N175        N  0.18261065  0.12078537  0.16457454    -0.61400
N176        N  0.21597591  0.49193021  0.14800719    -0.06100
N177        N  0.21172940  0.46681803  0.11634373    -0.58600
Mn178      Mn  0.26107804  0.06184691  0.19331150     1.20200
Mn179      Mn  0.18551075  0.48984543  0.20618751     1.10100
Cl180      Cl  0.25134878  0.00602715  0.25250783    -0.86500
C181        C  0.24073764  0.47861670  0.09218478     0.95800
C182        C  0.14226069  0.11673573  0.15815212     0.95600
C183        C  0.34360889  0.18886010  0.21637468    -0.17000
C184        C  0.33667707  0.18430638  0.25807832    -0.32200
H185        H  0.32009669  0.18529852  0.18992513     0.12000
H186        H  0.36090228  0.18900469  0.28343314     0.12600
C187        C  0.15848000  0.32425697  0.28958796    -0.17000
C188        C  0.16500977  0.32834417  0.24771192    -0.32200
H189        H  0.18208860  0.32844187  0.31575603     0.12000
H190        H  0.14065524  0.32323805  0.22267168     0.12600
C191        C  0.28583709  0.44173695  0.05175005    -0.17000
C192        C  0.24915857  0.45578493  0.05510612    -0.32200
H193        H  0.31074029  0.45080540  0.07446865     0.12000
H194        H  0.22382631  0.44288079  0.03580127     0.12600
C195        C  0.21607516  0.07035776  0.45315073    -0.17000
C196        C  0.25277244  0.05631968  0.44992473    -0.32200
H197        H  0.19121200  0.06133060  0.43036898     0.12000
H198        H  0.27806908  0.06919431  0.46929886     0.12600
C199        C  0.16378826  0.17440401  0.31220766    -0.17000
C200        C  0.18709325  0.20807723  0.31165160    -0.32200
H201        H  0.17502343  0.14717885  0.33315483     0.12000
H202        H  0.18014672  0.23246399  0.28557339     0.12600
C203        C  0.31511274  0.30440659  0.19295177    -0.17000
C204        C  0.33874114  0.33781704  0.19256002    -0.32200
H205        H  0.32174123  0.27996150  0.21902778     0.12000
H206        H  0.32780644  0.36518691  0.17166552     0.12600
C207        C  0.36548505  0.06922748  0.55127018    -0.17000
C208        C  0.38080528  0.10675597  0.53912929    -0.32200
H209        H  0.34109032  0.06692066  0.57060407     0.12000
H210        H  0.40641452  0.10812462  0.52191537     0.12600
C211        C  0.12207646  0.40525965  0.96627429    -0.17000
C212        C  0.13767279  0.44270893  0.95448933    -0.32200
H213        H  0.09644437  0.40388855  0.98355921     0.12000
H214        H  0.16210336  0.44502049  0.93515149     0.12600
C215        C  0.05328510  0.50879377  0.31783097    -0.17000
C216        C  0.08563121  0.98844732  0.33484364    -0.32200
H217        H  0.05024878  0.02374676  0.28347692     0.12000
H218        H  0.08889906  0.97812645  0.36920716     0.12600
C219        C  0.41759071  0.52686223  0.16969372    -0.17000
C220        C  0.44857459  0.00023276  0.18767458    -0.32200
H221        H  0.41407904  0.53721927  0.13533900     0.12000
H222        H  0.45261189  0.98843432  0.22155596     0.12600
C223        C  0.10934229  0.33968377  0.12312108    -0.17000
C224        C  0.59745024  0.33539301  0.08118582    -0.32200
H225        H  0.12578406  0.36704992  0.13325217     0.12000
H226        H  0.58556163  0.30566176  0.07139451     0.12600
C227        C  0.39348179  0.17276717  0.38267086    -0.17000
C228        C  0.90455328  0.17621719  0.42308726    -0.32200
H229        H  0.87833732  0.14417739  0.37090730     0.12000
H230        H  0.41523263  0.20596430  0.43540706     0.12600
C231        C  0.39121497  0.36343549  0.87650356    -0.03100
C232        C  0.11160124  0.14837417  0.62830053    -0.03100
N233        N  0.02402478  0.54756036  0.90928267    -0.06700
N234        N  0.04828819  0.54948983  0.87961963    -0.58800
N235        N  0.44730056  0.07893422  0.94939976    -0.06400
N236        N  0.41529030  0.10221092  0.93893720    -0.60900
N237        N  0.97718786  0.10170856  0.96244715    -0.06000
N238        N  0.96576254  0.14137547  0.96041183    -0.58800
N239        N  0.99319747  0.52444200  0.89725739    -0.05600
N240        N  0.99601552  0.51014184  0.85922870    -0.61300
C241        C  0.03033810  0.52666588  0.84844999     0.95500
C242        C  0.92602954  0.14033540  0.94660303     0.95300
N243        N  0.41082596  0.98086699  0.02018551    -0.06900
N244        N  0.39495860  0.99783770  0.55139447    -0.60000
N245        N  0.44624973  0.44556320  0.93008982    -0.05000
N246        N  0.42815492  0.42986686  0.89519127    -0.60600
N247        N  0.44780563  0.41803926  0.96377830    -0.06900
N248        N  0.42905560  0.38328962  0.95178263    -0.59700
N249        N  0.40334902  0.00411763  0.98332817    -0.04600
N250        N  0.38067348  0.03616333  0.98791543    -0.60700
Mn251      Mn  0.44768347  0.01282509  0.93915385     1.18400
C252        C  0.37553327  0.03278184  0.02982166     0.97600
C253        C  0.41689571  0.39105196  0.90830204     0.98200
N254        N  0.05488390  0.09404872  0.54101407    -0.06900
N255        N  0.07351563  0.12881112  0.55312266    -0.63200
N256        N  0.09938838  0.50815867  0.52233200    -0.05700
N257        N  0.12252564  0.47638088  0.51812257    -0.63900
N258        N  0.09174743  0.53145715  0.98482059    -0.06400
N259        N  0.10825051  0.51395937  0.95425464    -0.63500
N260        N  0.05667058  0.06634463  0.57454952    -0.05300
N261        N  0.07481889  0.08191145  0.60948434    -0.64200
Mn262      Mn  0.03705774  0.07132881  0.97368199     1.10700
C263        C  0.08584796  0.12085060  0.59652956     0.98800
C264        C  0.12793828  0.47970615  0.47628421     0.98900
N265        N  0.52485257  0.41073404  0.54214369    -0.06400
N266        N  0.53595343  0.37101998  0.54371228    -0.61800
N267        N  0.50964005  0.98696891  0.60813486    -0.05800
N268        N  0.50670437  0.00088416  0.64631715    -0.58500
N269        N  0.47907701  0.96352312  0.59607017    -0.07100
N270        N  0.45492216  0.96093451  0.62582180    -0.61400
N271        N  0.55571345  0.43346243  0.55540809    -0.06100
N272        N  0.08750043  0.41018464  0.56619560    -0.58600
Mn273      Mn  0.46518952  0.44124658  0.53090683     1.20200
Mn274      Mn  0.05487358  0.49933216  0.56623868     1.10100
Cl275      Cl  0.50128706  0.00596729  0.00277452    -0.86500
C276        C  0.57569935  0.37166566  0.55738968     0.95800
C277        C  0.47258980  0.98379072  0.65710463     0.95600
N278        N  0.31003438  0.18444302  0.04823015    -0.06700
N279        N  0.32266997  0.14568653  0.05492203    -0.58800
N280        N  0.30675401  0.27314300  0.58781844    -0.06400
N281        N  0.31987831  0.29933365  0.61624904    -0.60900
N282        N  0.28147886  0.24691984  0.60410900    -0.06000
N283        N  0.27843479  0.25415892  0.64474870    -0.58800
N284        N  0.33645084  0.20882912  0.03130452    -0.05600
N285        N  0.36795727  0.18583744  0.02634530    -0.61300
C286        C  0.35852699  0.14654792  0.04165028     0.95500
C287        C  0.30222399  0.28747597  0.65136702     0.95300
N288        N  0.27808757  0.35673466  0.48533270    -0.06900
N289        N  0.26694676  0.39511767  0.49134080    -0.59400
N290        N  0.34147402  0.29129914  0.95310498    -0.05000
N291        N  0.37511340  0.30884265  0.94175361    -0.60600
N292        N  0.31199248  0.30134869  0.92221083    -0.06900
N293        N  0.32584974  0.32373626  0.88981984    -0.59700
N294        N  0.30706081  0.34373757  0.51535331    -0.04600
N295        N  0.31680398  0.37304869  0.54203944    -0.60700
Mn296      Mn  0.32450143  0.27742487  0.52226488     1.18400
C297        C  0.29181188  0.40511893  0.52652814     0.97600
C298        C  0.36553099  0.32888519  0.90116788     0.98200
N299        N  0.19064909  0.21058423  0.58240313    -0.06900
N300        N  0.17693844  0.18799175  0.61475085    -0.63200
N301        N  0.19547632  0.16848715  0.98947785    -0.05700
N302        N  0.18573463  0.13913657  0.96284700    -0.63900
N303        N  0.22445092  0.15554811  0.01951323    -0.06400
N304        N  0.23559787  0.11715648  0.01359279    -0.63500
N305        N  0.16109549  0.22074285  0.55163401    -0.05300
N306        N  0.12751765  0.20310101  0.56304885    -0.64200
Mn307      Mn  0.25212789  0.19944818  0.56472778     1.10700
C308        C  0.13725102  0.18286907  0.60353269     0.98800
C309        C  0.21072332  0.10709647  0.97844150     0.98900
N310        N  0.22089946  0.26505492  0.90047910    -0.06400
N311        N  0.22368185  0.25754292  0.85983249    -0.61800
N312        N  0.16609132  0.30353860  0.47363767    -0.05800
N313        N  0.13475199  0.32663245  0.47894703    -0.58500
N314        N  0.19250996  0.32788537  0.45666409    -0.07100
N315        N  0.18005003  0.36669619  0.45027772    -0.61400
N316        N  0.19568328  0.23897058  0.91708137    -0.06100
N317        N  0.18239825  0.21260979  0.88895774    -0.58600
Mn318      Mn  0.25037507  0.31264474  0.93971384     1.20200
Mn319      Mn  0.17803617  0.23474619  0.98253144     1.10100
Cl320      Cl  0.25131593  0.25566126  0.50259735    -0.86500
C321        C  0.19983497  0.22416485  0.85365893     0.95800
C322        C  0.14430971  0.36593586  0.46380780     0.95600
N323        N  0.43566126  0.30198809  0.68001121    -0.06700
N324        N  0.39677688  0.29958154  0.66977756    -0.58800
N325        N  0.53257216  0.33070578  0.68954652    -0.06400
N326        N  0.06556611  0.34950694  0.68356842    -0.60900
N327        N  0.52423247  0.30079460  0.66343079    -0.06000
N328        N  0.05134484  0.29802817  0.64024648    -0.58800
N329        N  0.44342416  0.33222355  0.70600104    -0.05600
N330        N  0.41051401  0.35078434  0.71343195    -0.61300
C331        C  0.38170015  0.33008125  0.69082653     0.95500
C332        C  0.07699354  0.32807770  0.65127388     0.95300
N333        N  0.06388518  0.30570085  0.82267211    -0.06900
N334        N  0.10271115  0.29998680  0.83135850    -0.59400
N335        N  0.46477471  0.33608585  0.80493413    -0.05000
N336        N  0.43360371  0.35909292  0.81184383    -0.60600
N337        N  0.47337327  0.30737370  0.83724108    -0.06900
N338        N  0.44828266  0.31079859  0.86663520    -0.59700
N339        N  0.05539623  0.33467119  0.79066366    -0.04600
N340        N  0.08825695  0.34889759  0.77688521    -0.60700
Mn341      Mn  0.49931425  0.33579200  0.74668257     1.18400
C342        C  0.11730300  0.32697356  0.80237731     0.97600
C343        C  0.42270360  0.34298714  0.85051545     0.98200
N344        N  0.02981211  0.20478797  0.66778486    -0.06900
N345        N  0.05490357  0.20133890  0.63839770    -0.63200
N346        N  0.44689608  0.17711880  0.71529498    -0.05700
N347        N  0.41393441  0.16348943  0.72935680    -0.63900
N348        N  0.43853872  0.20564504  0.68283828    -0.06400
N349        N  0.39975837  0.21150647  0.67399233    -0.63500
N350        N  0.03822244  0.17588828  0.69994833    -0.05300
N351        N  0.06925193  0.15271895  0.69295367    -0.64200
Mn352      Mn  0.48141177  0.25358840  0.67086455     1.10700
C353        C  0.08027413  0.16893101  0.65438018     0.98800
C354        C  0.38501497  0.18525654  0.70346399     0.98900
N355        N  0.97773449  0.21060447  0.84095827    -0.06400
N356        N  0.45185543  0.21449454  0.86546549    -0.61800
N357        N  0.05883952  0.17914627  0.79914670    -0.05800
N358        N  0.09175651  0.16032964  0.79216004    -0.58500
N359        N  0.06648030  0.20917444  0.82541462    -0.07100
N360        N  0.10530592  0.21116293  0.83633923    -0.61400
N361        N  0.96958530  0.18078063  0.81468011    -0.06100
N362        N  0.43717984  0.16301368  0.82226895    -0.58600
Mn363      Mn  0.02080811  0.25773216  0.83430662     1.20200
Mn364      Mn  0.00329317  0.17588973  0.75788233     1.10100
Cl365      Cl  0.50157034  0.25604280  0.75151928    -0.86500
C366        C  0.42594891  0.18464178  0.85450912     0.95800
C367        C  0.12045755  0.18061692  0.81539281     0.95600
N368        N  0.30564445  0.42760876  0.82075760    -0.06700
N369        N  0.32054963  0.39131659  0.83937919    -0.58800
N370        N  0.28667139  0.02142689  0.85639045    -0.06400
N371        N  0.29076704  0.04694905  0.88769618    -0.60900
N372        N  0.25738795  0.99550436  0.86118666    -0.06000
N373        N  0.24028263  0.00325528  0.89563652    -0.58800
N374        N  0.33449585  0.45391190  0.81545288    -0.05600
N375        N  0.36940497  0.43526669  0.83032877    -0.61300
C376        C  0.36091301  0.39533431  0.84559605     0.95500
C377        C  0.26186975  0.03519834  0.91203797     0.95300
N378        N  0.27666866  0.10219465  0.74445125    -0.06900
N379        N  0.28013224  0.14254966  0.73574682    -0.59400
N380        N  0.34366797  0.52592164  0.73834227    -0.05000
N381        N  0.38114802  0.51884544  0.73384525    -0.60600
N382        N  0.32368422  0.54090878  0.70125855    -0.06900
N383        N  0.34731085  0.54424922  0.67085858    -0.59700
N384        N  0.29933530  0.08952707  0.78075542    -0.04600
N385        N  0.31912030  0.12159166  0.79619806    -0.60700
Mn386      Mn  0.31702595  0.02287113  0.79818077     1.18400
C387        C  0.30754789  0.15437468  0.76735184     0.97600
C388        C  0.38276913  0.53059932  0.69164789     0.98200
N389        N  0.17900632  0.97141650  0.80384644    -0.06900
N390        N  0.15553568  0.96902716  0.83440752    -0.63200
N391        N  0.20307047  0.42283814  0.72378617    -0.05700
N392        N  0.18277985  0.39095728  0.70862485    -0.63900
N393        N  0.22593822  0.40998626  0.75990888    -0.06400
N394        N  0.22216038  0.36968900  0.76867386    -0.63500
N395        N  0.15902220  0.98605729  0.76664287    -0.05300
N396        N  0.12168394  0.99381612  0.77118403    -0.64200
Mn397      Mn  0.24195918  0.45033836  0.81177417     1.10700
C398        C  0.12015960  0.98286704  0.81355765     0.98800
C399        C  0.19430596  0.35810864  0.73741150     0.98900
N400        N  0.24522774  0.51713132  0.64366257    -0.06400
N401        N  0.26239283  0.50942625  0.60922563    -0.61800
N402        N  0.16821708  0.05775917  0.68926871    -0.05800
N403        N  0.13331974  0.07646350  0.67445651    -0.58500
N404        N  0.19707353  0.08404110  0.68387586    -0.07100
N405        N  0.18220928  0.12034118  0.66525960    -0.61400
N406        N  0.21587985  0.49125590  0.64831759    -0.06100
N407        N  0.21179434  0.46583254  0.61691367    -0.58600
Mn408      Mn  0.26071234  0.06145881  0.69289454     1.20200
Mn409      Mn  0.18556108  0.48958280  0.70664115     1.10100
Cl410      Cl  0.25127137  0.00602433  0.75243622    -0.86500
C411        C  0.24077091  0.47756944  0.59266363     0.95800
C412        C  0.14185741  0.11638451  0.65913604     0.95600
C413        C  0.34447933  0.18805992  0.71384828    -0.17000
C414        C  0.33775165  0.18407218  0.75563180    -0.32200
H415        H  0.32093613  0.18397474  0.68757705     0.12000
H416        H  0.36205368  0.18910110  0.78080851     0.12600
C417        C  0.15774227  0.32468276  0.79157235    -0.17000
C418        C  0.16401905  0.32871886  0.74961754    -0.32200
H419        H  0.18145337  0.32900114  0.81759758     0.12000
H420        H  0.13954257  0.32360341  0.72470434     0.12600
C421        C  0.28606160  0.44111219  0.55196415    -0.17000
C422        C  0.24925001  0.45457608  0.55570107    -0.32200
H423        H  0.31099361  0.45063629  0.57430143     0.12000
H424        H  0.22400063  0.44118938  0.53678664     0.12600
C425        C  0.21657459  0.07113814  0.95306350    -0.17000
C426        C  0.25345204  0.05817971  0.94898140    -0.32200
H427        H  0.19158742  0.06128602  0.93097549     0.12000
H428        H  0.27868212  0.07192690  0.96760906     0.12600
C429        C  0.16309567  0.17384723  0.81355374    -0.17000
C430        C  0.18631718  0.20758069  0.81202871    -0.32200
H431        H  0.17464980  0.14694801  0.83479058     0.12000
H432        H  0.17894502  0.23165317  0.78575307     0.12600
C433        C  0.31561076  0.30335651  0.69339241    -0.17000
C434        C  0.33908176  0.33689602  0.69280016    -0.32200
H435        H  0.32267012  0.27881420  0.71931510     0.12000
H436        H  0.32768170  0.36438532  0.67234545     0.12600
C437        C  0.36509013  0.06995955  0.05065332    -0.17000
C438        C  0.38019154  0.10752713  0.03827302    -0.32200
H439        H  0.34097753  0.06757798  0.07038770     0.12000
H440        H  0.40557148  0.10895116  0.02067863     0.12600
C441        C  0.12297450  0.40505328  0.46753106    -0.17000
C442        C  0.13855278  0.44251647  0.45567916    -0.32200
H443        H  0.09731421  0.40372309  0.48474334     0.12000
H444        H  0.16299742  0.44481725  0.43636357     0.12600
C445        C  0.05354322  0.50888324  0.81820789    -0.17000
C446        C  0.08607701  0.98920257  0.83616309    -0.32200
H447        H  0.04864625  0.02051133  0.78357308     0.12000
H448        H  0.09003744  0.98055620  0.87087145     0.12600
C449        C  0.41712444  0.52541045  0.66908937    -0.17000
C450        C  0.44890197  0.00156880  0.68690566    -0.32200
H451        H  0.41336895  0.53501155  0.63458639     0.12000
H452        H  0.45389201  0.99175505  0.72128559     0.12600
C453        C  0.10794977  0.34033625  0.62435622    -0.17000
C454        C  0.59835942  0.33565121  0.57917320    -0.32200
H455        H  0.12402281  0.36807975  0.63392238     0.12000
H456        H  0.58655112  0.30600894  0.56911468     0.12600
C457        C  0.39488319  0.17272225  0.88141143    -0.17000
C458        C  0.90304567  0.17596366  0.92438334    -0.32200
H459        H  0.87677845  0.14463256  0.87177806     0.12000
H460        H  0.41701154  0.20655704  0.93363603     0.12600
C461        C  0.39068918  0.86343101  0.37776604    -0.03100
C462        C  0.11201486  0.64881948  0.12743596    -0.03100
N463        N  0.02448406  0.04850880  0.40911036    -0.06700
N464        N  0.04863772  0.05136004  0.37933992    -0.58800
N465        N  0.44660006  0.57861593  0.44898175    -0.06400
N466        N  0.41434322  0.60157181  0.43888831    -0.60900
N467        N  0.97812637  0.60141710  0.46258777    -0.06000
N468        N  0.96725048  0.64124556  0.46039323    -0.58800
N469        N  0.99382737  0.02528674  0.39676854    -0.05600
N470        N  0.99665750  0.01185541  0.35835772    -0.61300
C471        C  0.03078855  0.02900947  0.34771803     0.95500
C472        C  0.92757451  0.64079130  0.44628985     0.95300
N473        N  0.41099555  0.48063530  0.52022794    -0.06900
N474        N  0.39388453  0.49828965  0.04998719    -0.60000
N475        N  0.44619101  0.94535355  0.43084454    -0.05000
N476        N  0.42767759  0.92975760  0.39613810    -0.60600
N477        N  0.44809998  0.91774389  0.46448632    -0.06900
N478        N  0.42915479  0.88305618  0.45269270    -0.59700
N479        N  0.40323750  0.50367856  0.48328062    -0.04600
N480        N  0.38040344  0.53560546  0.48782953    -0.60700
Mn481      Mn  0.44735702  0.51249686  0.43891603     1.18400
C482        C  0.37547573  0.53230999  0.52979857     0.97600
C483        C  0.41647524  0.89098299  0.40937369     0.98200
N484        N  0.05491996  0.59419716  0.04070263    -0.06900
N485        N  0.07382297  0.62892625  0.05245313    -0.63200
N486        N  0.09919924  0.00863476  0.02092864    -0.05700
N487        N  0.12198378  0.97672061  0.01620759    -0.63900
N488        N  0.09182357  0.03130663  0.48471672    -0.06400
N489        N  0.10825812  0.01376405  0.45408762    -0.63500
N490        N  0.05668778  0.56670683  0.07442577    -0.05300
N491        N  0.07510048  0.58239818  0.10913528    -0.64200
Mn492      Mn  0.03771923  0.57062366  0.47431754     1.10700
C493        C  0.08634799  0.62114083  0.09583035     0.98800
C494        C  0.12676163  0.98005584  0.97421060     0.98900
N495        N  0.52462894  0.91038074  0.04248925    -0.06400
N496        N  0.53581217  0.87062757  0.04473172    -0.61800
N497        N  0.50934516  0.48769622  0.10762560    -0.05800
N498        N  0.50661078  0.50205620  0.14564091    -0.58500
N499        N  0.47830768  0.46488967  0.09548894    -0.07100
N500        N  0.45394594  0.46330174  0.12507383    -0.61400
N501        N  0.55537608  0.93321604  0.05590557    -0.06100
N502        N  0.08832438  0.91033786  0.06535989    -0.58600
Mn503      Mn  0.46489931  0.94101670  0.03083897     1.20200
Mn504      Mn  0.05531014  0.99958413  0.06554296     1.10100
Cl505      Cl  0.50122125  0.50614847  0.50228193    -0.86500
C506        C  0.57549338  0.87141203  0.05885888     0.95800
C507        C  0.47210942  0.48593059  0.15631349     0.95600
N508        N  0.31041948  0.68357007  0.54890697    -0.06700
N509        N  0.32320634  0.64488430  0.55558626    -0.58800
N510        N  0.30706288  0.77367997  0.08754637    -0.06400
N511        N  0.32029878  0.79975354  0.11607129    -0.60900
N512        N  0.28166804  0.74756292  0.10378108    -0.06000
N513        N  0.27862561  0.75474127  0.14443452    -0.58800
N514        N  0.33676546  0.70803908  0.53195210    -0.05600
N515        N  0.36835889  0.68519558  0.52696428    -0.61300
C516        C  0.35905474  0.64588236  0.54226466     0.95500
C517        C  0.30253524  0.78793853  0.15113743     0.95300
N518        N  0.27818882  0.85736634  0.98514099    -0.06900
N519        N  0.26713372  0.89574024  0.99127475    -0.59400
N520        N  0.34155210  0.79049659  0.45392217    -0.05000
N521        N  0.37502625  0.80852434  0.44276272    -0.60600
N522        N  0.31203059  0.80045180  0.42304906    -0.06900
N523        N  0.32568205  0.82328770  0.39084477    -0.59700
N524        N  0.30722266  0.84428253  0.01505997    -0.04600
N525        N  0.31707798  0.87350072  0.04180678    -0.60700
Mn526      Mn  0.32466678  0.77802156  0.02182571     1.18400
C527        C  0.29211825  0.90561660  0.02642986     0.97600
C528        C  0.36524472  0.82879802  0.40234600     0.98200
N529        N  0.19080892  0.71146122  0.08196623    -0.06900
N530        N  0.17714760  0.68868523  0.11420465    -0.63200
N531        N  0.19565336  0.66756956  0.49013487    -0.05700
N532        N  0.18596108  0.63838127  0.46330158    -0.63900
N533        N  0.22470277  0.65454408  0.52006836    -0.06400
N534        N  0.23594922  0.61625019  0.51381200    -0.63500
N535        N  0.16126924  0.72152517  0.05113742    -0.05300
N536        N  0.12775253  0.70366780  0.06240009    -0.64200
Mn537      Mn  0.25222746  0.70021935  0.06440936     1.10700
C538        C  0.13754483  0.68334884  0.10280123     0.98800
C539        C  0.21104458  0.60634721  0.47859342     0.98900
N540        N  0.22125244  0.76417303  0.40129109    -0.06400
N541        N  0.22432785  0.75697911  0.36065387    -0.61800
N542        N  0.16598329  0.80411793  0.97303825    -0.05800
N543        N  0.13432725  0.82700800  0.97777067    -0.58500
N544        N  0.19243309  0.82859186  0.95627920    -0.07100
N545        N  0.17967979  0.86730234  0.94951223    -0.61400
N546        N  0.19585436  0.73805283  0.41751483    -0.06100
N547        N  0.18262714  0.71197619  0.38898482    -0.58600
Mn548      Mn  0.25058457  0.81163625  0.44057409     1.20200
Mn549      Mn  0.17816332  0.73384798  0.48318889     1.10100
Cl550      Cl  0.25142228  0.75639394  0.00222948    -0.86500
C551        C  0.20041853  0.72378761  0.35393395     0.95800
C552        C  0.14372006  0.86633901  0.96253028     0.95600
N553        N  0.43561309  0.80244149  0.18155881    -0.06700
N554        N  0.39682500  0.80037311  0.17051084    -0.58800
N555        N  0.53231987  0.83110923  0.19198568    -0.06400
N556        N  0.06625919  0.84927191  0.18083432    -0.60900
N557        N  0.52425149  0.80110953  0.16592204    -0.06000
N558        N  0.05159666  0.79791906  0.13748608    -0.58800
N559        N  0.44313607  0.83250749  0.20779757    -0.05600
N560        N  0.41013630  0.85126023  0.21467900    -0.61300
C561        C  0.38153931  0.83087211  0.19136864     0.95500
C562        C  0.07760075  0.82762825  0.14867332     0.95300
N563        N  0.06481390  0.80651362  0.31997852    -0.06900
N564        N  0.10357084  0.80026234  0.32860197    -0.59400
N565        N  0.46419330  0.83596180  0.30672205    -0.05000
N566        N  0.43309279  0.85907199  0.31348995    -0.60600
N567        N  0.47261982  0.80714239  0.33895905    -0.06900
N568        N  0.44743018  0.81058729  0.36821562    -0.59700
N569        N  0.05655624  0.83502542  0.28747766    -0.04600
N570        N  0.08957457  0.84821044  0.27316723    -0.60700
Mn571      Mn  0.49880584  0.83596709  0.24884263     1.18400
C572        C  0.11841387  0.82621014  0.29894386     0.97600
C573        C  0.42203176  0.84288585  0.35198796     0.98200
N574        N  0.02991291  0.70508797  0.16589245    -0.06900
N575        N  0.05510429  0.70157760  0.13665397    -0.63200
N576        N  0.44653986  0.67727619  0.21640080    -0.05700
N577        N  0.41359815  0.66341186  0.23031904    -0.63900
N578        N  0.43817126  0.70608070  0.18421709    -0.06400
N579        N  0.39936945  0.71198374  0.17549651    -0.63500
N580        N  0.03841617  0.67642851  0.19827330    -0.05300
N581        N  0.06958688  0.65337511  0.19162783    -0.64200
Mn582      Mn  0.48130680  0.75396718  0.17261886     1.10700
C583        C  0.08058765  0.66941085  0.15304866     0.98800
C584        C  0.38464615  0.68536114  0.20469070     0.98900
N585        N  0.97866948  0.71176447  0.33914582    -0.06400
N586        N  0.45085376  0.71402035  0.36681602    -0.61800
N587        N  0.05957255  0.68006304  0.29711371    -0.05800
N588        N  0.09248306  0.66111257  0.29028370    -0.58500
N589        N  0.06723611  0.71019854  0.32322201    -0.07100
N590        N  0.10604050  0.71212479  0.33424260    -0.61400
N591        N  0.97039903  0.68179676  0.31308513    -0.06100
N592        N  0.43630727  0.66288193  0.32315078    -0.58600
Mn593      Mn  0.02166152  0.75880001  0.33200114     1.20200
Mn594      Mn  0.00386147  0.67659658  0.25618977     1.10100
Cl595      Cl  0.50110184  0.75614625  0.25332996    -0.86500
C596        C  0.42492441  0.68429517  0.35546125     0.95800
C597        C  0.12117992  0.68146245  0.31348269     0.95600
N598        N  0.30526918  0.92751381  0.32145788    -0.06700
N599        N  0.32008601  0.89127607  0.34036440    -0.58800
N600        N  0.28649891  0.52019264  0.35669116    -0.06400
N601        N  0.29072633  0.54536423  0.38829861    -0.60900
N602        N  0.25700467  0.49444711  0.36111089    -0.06000
N603        N  0.23987216  0.50201326  0.39560888    -0.58800
N604        N  0.33412798  0.95384904  0.31629513    -0.05600
N605        N  0.36898037  0.93524763  0.33149111    -0.61300
C606        C  0.36043208  0.89533465  0.34681095     0.95500
C607        C  0.26168653  0.53363504  0.41243549     0.95300
N608        N  0.27651795  0.60202901  0.24567955    -0.06900
N609        N  0.27985318  0.64244932  0.23743108    -0.59400
N610        N  0.34360070  0.02590633  0.23920410    -0.05000
N611        N  0.38097135  0.01807548  0.23483946    -0.60600
N612        N  0.32387553  0.04094402  0.20200005    -0.06900
N613        N  0.34756650  0.04361792  0.17166186    -0.59700
N614        N  0.29933207  0.58902791  0.28177759    -0.04600
N615        N  0.31917671  0.62095676  0.29745651    -0.60700
Mn616      Mn  0.31698849  0.52223031  0.29854358     1.18400
C617        C  0.30745155  0.65398777  0.26897683     0.97600
C618        C  0.38278719  0.02946804  0.19259788     0.98200
N619        N  0.17854883  0.47056938  0.30308342    -0.06900
N620        N  0.15471133  0.46664847  0.33326848    -0.63200
N621        N  0.20377602  0.92288803  0.22323669    -0.05700
N622        N  0.18444417  0.89081249  0.20721461    -0.63900
N623        N  0.22626569  0.91001933  0.25959658    -0.06400
N624        N  0.22315263  0.86955637  0.26776800    -0.63500
N625        N  0.15868913  0.48583555  0.26603629    -0.05300
N626        N  0.12109867  0.49256068  0.27037254    -0.64200
Mn627      Mn  0.24162393  0.95019798  0.31169556     1.10700
C628        C  0.11926676  0.48029788  0.31243123     0.98800
C629        C  0.19607706  0.85783052  0.23578872     0.98900
N630        N  0.24591646  0.01736287  0.14361905    -0.06400
N631        N  0.26306286  0.01001954  0.10908141    -0.61800
N632        N  0.16835147  0.55852960  0.18931058    -0.05800
N633        N  0.13353899  0.57718018  0.17405595    -0.58500
N634        N  0.19726731  0.58479378  0.18410984    -0.07100
N635        N  0.18250857  0.62103423  0.16515329    -0.61400
N636        N  0.21658056  0.99142760  0.14804318    -0.06100
N637        N  0.21246948  0.96630134  0.11639298    -0.58600
Mn638      Mn  0.26091742  0.56206243  0.19343390     1.20200
Mn639      Mn  0.18593037  0.98960718  0.20605053     1.10100
Cl640      Cl  0.25124837  0.50603291  0.25237015    -0.86500
C641        C  0.24142254  0.97831121  0.09223636     0.95800
C642        C  0.14216385  0.61703501  0.15865242     0.95600
C643        C  0.34413715  0.68791828  0.21527884    -0.17000
C644        C  0.33760260  0.68371986  0.25714800    -0.32200
H645        H  0.32051937  0.68382537  0.18909071     0.12000
H646        H  0.36196559  0.68874200  0.28221685     0.12600
C647        C  0.15901145  0.82325628  0.28866739    -0.17000
C648        C  0.16595313  0.82777960  0.24696404    -0.32200
H649        H  0.18250157  0.82688808  0.31511675     0.12000
H650        H  0.14174237  0.82304564  0.22160728     0.12600
C651        C  0.28659298  0.94157698  0.05191670    -0.17000
C652        C  0.24991348  0.95569745  0.05509468    -0.32200
H653        H  0.31144667  0.95052659  0.07475565     0.12000
H654        H  0.22460997  0.94290661  0.03565742     0.12600
C655        C  0.21663247  0.57042062  0.45301974    -0.17000
C656        C  0.25331515  0.55649081  0.44951101    -0.32200
H657        H  0.19168307  0.56127088  0.43041404     0.12000
H658        H  0.27866454  0.56948707  0.46870108     0.12600
C659        C  0.16383879  0.67431783  0.31229387    -0.17000
C660        C  0.18737060  0.70780875  0.31187043    -0.32200
H661        H  0.17487779  0.64697940  0.33313532     0.12000
H662        H  0.18065060  0.73222683  0.28582005     0.12600
C663        C  0.31554367  0.80402785  0.19315744    -0.17000
C664        C  0.33884206  0.83770480  0.19262450    -0.32200
H665        H  0.32248226  0.77964518  0.21922626     0.12000
H666        H  0.32759692  0.86493803  0.17171349     0.12600
C667        C  0.36515631  0.56944015  0.55062338    -0.17000
C668        C  0.38068156  0.60690395  0.53876448    -0.32200
H669        H  0.34071337  0.56712749  0.56996828     0.12000
H670        H  0.40634138  0.60828367  0.52148539     0.12600
C671        C  0.12185049  0.90533790  0.96556756    -0.17000
C672        C  0.13711976  0.94287910  0.95335412    -0.32200
H673        H  0.09626481  0.90397078  0.98279378     0.12000
H674        H  0.16149809  0.94518389  0.93400918     0.12600
C675        C  0.05416223  0.01179710  0.31731101    -0.17000
C676        C  0.08480633  0.48530244  0.33495012    -0.32200
H677        H  0.04930211  0.52104357  0.28409867     0.12000
H678        H  0.08821549  0.47471826  0.36924373     0.12600
C679        C  0.41703992  0.02348734  0.17014322    -0.17000
C680        C  0.44926018  0.50365931  0.18693114    -0.32200
H681        H  0.41369385  0.03369997  0.13574889     0.12000
H682        H  0.45340010  0.49170699  0.22075766     0.12600
C683        C  0.10909570  0.83929678  0.12222545    -0.17000
C684        C  0.59802399  0.83575348  0.08162869    -0.32200
H685        H  0.12571311  0.86654982  0.13231881     0.12000
H686        H  0.58641299  0.80583884  0.07212609     0.12600
C687        C  0.39346413  0.67240310  0.38187309    -0.17000
C688        C  0.90527702  0.67676852  0.42389837    -0.32200
H689        H  0.87851040  0.64532751  0.37156292     0.12000
H690        H  0.41491340  0.70587555  0.43454740     0.12600
C691        C  0.39106111  0.86376984  0.87651468    -0.03100
C692        C  0.11147960  0.64859707  0.62849219    -0.03100
N693        N  0.02348101  0.04871899  0.90882238    -0.06700
N694        N  0.04760513  0.05135747  0.87904087    -0.58800
N695        N  0.44718073  0.57877195  0.94904231    -0.06400
N696        N  0.41506119  0.60186432  0.93856814    -0.60900
N697        N  0.97785534  0.60128819  0.96268368    -0.06000
N698        N  0.96672763  0.64099580  0.96110157    -0.58800
N699        N  0.99292455  0.02526061  0.89677442    -0.05600
N700        N  0.99584247  0.01137717  0.85857109    -0.61300
C701        C  0.02993750  0.02850719  0.84775479     0.95500
C702        C  0.92699172  0.64031956  0.94737685     0.95300
N703        N  0.41074563  0.48084976  0.01962224    -0.06900
N704        N  0.39457967  0.49816746  0.55083647    -0.60000
N705        N  0.44595187  0.94580567  0.93032119    -0.05000
N706        N  0.42781584  0.93025232  0.89536829    -0.60600
N707        N  0.44771280  0.91809439  0.96384910    -0.06900
N708        N  0.42909033  0.88333625  0.95171501    -0.59700
N709        N  0.40324993  0.50386007  0.98263880    -0.04600
N710        N  0.38015607  0.53566630  0.98687614    -0.60700
Mn711      Mn  0.44775078  0.51267726  0.93870676     1.18400
C712        C  0.37477593  0.53235042  0.02872597     0.97600
C713        C  0.41678138  0.89130706  0.90830447     0.98200
N714        N  0.05488670  0.59397239  0.54124566    -0.06900
N715        N  0.07363127  0.62872156  0.55324311    -0.63200
N716        N  0.09932250  0.00805187  0.52156921    -0.05700
N717        N  0.12199555  0.97601149  0.51695900    -0.63900
N718        N  0.09132420  0.03178225  0.98404514    -0.06400
N719        N  0.10761636  0.01427294  0.95330841    -0.63500
N720        N  0.05645567  0.56643668  0.57492588    -0.05300
N721        N  0.07457605  0.58212126  0.60982264    -0.64200
Mn722      Mn  0.03753054  0.57080273  0.97403085     1.10700
C723        C  0.08581509  0.62094890  0.59671440     0.98800
C724        C  0.12710627  0.97939861  0.47504469     0.98900
N725        N  0.52545311  0.91041603  0.54261530    -0.06400
N726        N  0.53690372  0.87076007  0.54459603    -0.61800
N727        N  0.50961265  0.48752703  0.60769856    -0.05800
N728        N  0.50680552  0.50185984  0.64571876    -0.58500
N729        N  0.47876455  0.46442936  0.59569090    -0.07100
N730        N  0.45450290  0.46254414  0.62535891    -0.61400
N731        N  0.55610039  0.93343400  0.55588447    -0.06100
N732        N  0.08744487  0.90991492  0.56602099    -0.58600
Mn733      Mn  0.46558194  0.94079270  0.53124202     1.20200
Mn734      Mn  0.05500514  0.99931653  0.56576206     1.10100
Cl735      Cl  0.50139187  0.50618681  0.00228945    -0.86500
C736        C  0.57663449  0.87182132  0.55841189     0.95800
C737        C  0.47246922  0.48537524  0.65651374     0.95600
N738        N  0.31026289  0.68418278  0.04822210    -0.06700
N739        N  0.32275030  0.64538264  0.05468234    -0.58800
N740        N  0.30686881  0.77309998  0.58783054    -0.06400
N741        N  0.32015753  0.79938867  0.61603613    -0.60900
N742        N  0.28166582  0.74696434  0.60437699    -0.06000
N743        N  0.27888219  0.75436605  0.64504898    -0.58800
N744        N  0.33667499  0.70851866  0.03121956    -0.05600
N745        N  0.36803306  0.68542696  0.02596350    -0.61300
C746        C  0.35849988  0.64613640  0.04116345     0.95500
C747        C  0.30272391  0.78772783  0.65131669     0.95300
N748        N  0.27805837  0.85656174  0.48535160    -0.06900
N749        N  0.26687846  0.89494287  0.49125879    -0.59400
N750        N  0.34162693  0.79133205  0.95317121    -0.05000
N751        N  0.37519460  0.80899071  0.94174516    -0.60600
N752        N  0.31206040  0.80149710  0.92241753    -0.06900
N753        N  0.32575436  0.82410461  0.89007025    -0.59700
N754        N  0.30701550  0.84363017  0.51541270    -0.04600
N755        N  0.31671440  0.87298412  0.54205008    -0.60700
Mn756      Mn  0.32451366  0.77737892  0.52236120     1.18400
C757        C  0.29171783  0.90501024  0.52642772     0.97600
C758        C  0.36544124  0.82923908  0.90127213     0.98200
N759        N  0.19063309  0.71068975  0.58265151    -0.06900
N760        N  0.17682578  0.68827057  0.61505272    -0.63200
N761        N  0.19572072  0.66829142  0.98953480    -0.05700
N762        N  0.18597779  0.63891278  0.96292466    -0.63900
N763        N  0.22467866  0.65532814  0.01959097    -0.06400
N764        N  0.23580594  0.61691579  0.01369447    -0.63500
N765        N  0.16111777  0.72077885  0.55180923    -0.05300
N766        N  0.12749558  0.70323146  0.56321364    -0.64200
Mn767      Mn  0.25221829  0.69943146  0.56508447     1.10700
C768        C  0.13713572  0.68314198  0.60377448     0.98800
C769        C  0.21095193  0.60684772  0.97853356     0.98900
N770        N  0.22120485  0.76517131  0.90070527    -0.06400
N771        N  0.22419114  0.75796639  0.86004161    -0.61800
N772        N  0.16607713  0.80333730  0.47358089    -0.05800
N773        N  0.13457176  0.82633898  0.47853235    -0.58500
N774        N  0.19248711  0.82771196  0.45662451    -0.07100
N775        N  0.17984789  0.86646664  0.44990784    -0.61400
N776        N  0.19594848  0.73893478  0.91701295    -0.06100
N777        N  0.18277950  0.71277337  0.88857086    -0.58600
Mn778      Mn  0.25058410  0.81263076  0.94011151     1.20200
Mn779      Mn  0.17823348  0.73463434  0.98258301     1.10100
Cl780      Cl  0.25135816  0.75554889  0.50283155    -0.86500
C781        C  0.20038693  0.72465712  0.85342836     0.95800
C782        C  0.14399832  0.86562158  0.46319446     0.95600
N783        N  0.43610168  0.80287815  0.67944645    -0.06700
N784        N  0.39726319  0.80074300  0.66868852    -0.58800
N785        N  0.53299214  0.83139085  0.69004481    -0.06400
N786        N  0.06549971  0.84906571  0.68275267    -0.60900
N787        N  0.52485422  0.80154959  0.66378261    -0.06000
N788        N  0.05081291  0.79761565  0.63951833    -0.58800
N789        N  0.44373425  0.83293851  0.70567801    -0.05600
N790        N  0.41079479  0.85163029  0.71279505    -0.61300
C791        C  0.38209191  0.83122772  0.68969504     0.95500
C792        C  0.07672102  0.82746582  0.65048968     0.95300
N793        N  0.06416694  0.80636238  0.82218081    -0.06900
N794        N  0.10294744  0.80049884  0.83105361    -0.59400
N795        N  0.46444310  0.83631190  0.80483910    -0.05000
N796        N  0.43339314  0.85945142  0.81183442    -0.60600
N797        N  0.47290015  0.80744292  0.83702514    -0.06900
N798        N  0.44782542  0.81088660  0.86642824    -0.59700
N799        N  0.05582711  0.83489992  0.78973028    -0.04600
N800        N  0.08880042  0.84853699  0.77570081    -0.60700
Mn801      Mn  0.49932442  0.83629831  0.74686448     1.18400
C802        C  0.11770971  0.82676860  0.80160895     0.97600
C803        C  0.42241369  0.84325502  0.85043452     0.98200
N804        N  0.02930496  0.70468816  0.66773829    -0.06900
N805        N  0.05440969  0.70126284  0.63835486    -0.63200
N806        N  0.44729559  0.67749470  0.71432753    -0.05700
N807        N  0.41445577  0.66335170  0.72822508    -0.63900
N808        N  0.43877296  0.70639189  0.68225299    -0.06400
N809        N  0.39994311  0.71211995  0.67363278    -0.63500
N810        N  0.03788344  0.67595938  0.70003396    -0.05300
N811        N  0.06904955  0.65294189  0.69312652    -0.64200
Mn812      Mn  0.48181500  0.75437595  0.67052073     1.10700
C813        C  0.07997564  0.66905634  0.65446984     0.98800
C814        C  0.38538681  0.68524542  0.70273985     0.98900
N815        N  0.97836740  0.71128030  0.84149130    -0.06400
N816        N  0.45146274  0.71413396  0.86471536    -0.61800
N817        N  0.05920382  0.67978836  0.79897614    -0.05800
N818        N  0.09211052  0.66124211  0.79151360    -0.58500
N819        N  0.06697230  0.71001600  0.82497529    -0.07100
N820        N  0.10585926  0.71243035  0.83517952    -0.61400
N821        N  0.97005616  0.68135450  0.81538660    -0.06100
N822        N  0.43726161  0.66268633  0.82134633    -0.58600
Mn823      Mn  0.02124389  0.75844979  0.83412592     1.20200
Mn824      Mn  0.00333083  0.67625411  0.75827791     1.10100
Cl825      Cl  0.50160555  0.75651235  0.75124389    -0.86500
C826        C  0.42582247  0.68408059  0.85364968     0.95800
C827        C  0.12093049  0.68194487  0.81410754     0.95600
N828        N  0.30551788  0.92803056  0.82099074    -0.06700
N829        N  0.32041975  0.89173799  0.83958491    -0.58800
N830        N  0.28692131  0.52081064  0.85666964    -0.06400
N831        N  0.29103087  0.54624670  0.88805914    -0.60900
N832        N  0.25756444  0.49495292  0.86134151    -0.06000
N833        N  0.24041664  0.50268397  0.89578426    -0.58800
N834        N  0.33435655  0.95432914  0.81558595    -0.05600
N835        N  0.36927412  0.93565747  0.83037300    -0.61300
C836        C  0.36077186  0.89572921  0.84568922     0.95500
C837        C  0.26205964  0.53454017  0.91232446     0.95300
N838        N  0.27683624  0.60207903  0.74509348    -0.06900
N839        N  0.28060037  0.64238270  0.73635910    -0.59400
N840        N  0.34351462  0.02600902  0.73822498    -0.05000
N841        N  0.38086863  0.01833963  0.73368286    -0.60600
N842        N  0.32351565  0.04062232  0.70101969    -0.06900
N843        N  0.34698345  0.04308508  0.67046004    -0.59700
N844        N  0.29969216  0.58921460  0.78121942    -0.04600
N845        N  0.31994808  0.62109546  0.79642765    -0.60700
Mn846      Mn  0.31721629  0.52247393  0.79834676     1.18400
C847        C  0.30842066  0.65395795  0.76766203     0.97600
C848        C  0.38237753  0.02931803  0.69131037     0.98200
N849        N  0.17911519  0.47117550  0.80373929    -0.06900
N850        N  0.15550530  0.46785248  0.83415258    -0.63200
N851        N  0.20321575  0.92248614  0.72416599    -0.05700
N852        N  0.18345024  0.89037974  0.70878409    -0.63900
N853        N  0.22594503  0.90985430  0.76043934    -0.06400
N854        N  0.22256044  0.86949422  0.76917199    -0.63500
N855        N  0.15912198  0.48614114  0.76665302    -0.05300
N856        N  0.12164717  0.49322009  0.77116079    -0.64200
Mn857      Mn  0.24184553  0.95058755  0.81197957     1.10700
C858        C  0.12004568  0.48148862  0.81336612     0.98800
C859        C  0.19511360  0.85761741  0.73763222     0.98900
N860        N  0.24511951  0.01653811  0.64368098    -0.06400
N861        N  0.26216778  0.00881416  0.60918676    -0.61800
N862        N  0.16826575  0.55814717  0.68953748    -0.05800
N863        N  0.13334580  0.57677933  0.67467659    -0.58500
N864        N  0.19710622  0.58446592  0.68423354    -0.07100
N865        N  0.18217701  0.62075722  0.66562294    -0.61400
N866        N  0.21583968  0.99061468  0.64849671    -0.06100
N867        N  0.21168769  0.96512288  0.61716607    -0.58600
Mn868      Mn  0.26081752  0.56174212  0.69322302     1.20200
Mn869      Mn  0.18551116  0.98917609  0.70670215     1.10100
Cl870      Cl  0.25138745  0.50603312  0.75249381    -0.86500
C871        C  0.24054784  0.97689219  0.59278454     0.95800
C872        C  0.14181096  0.61672150  0.65941393     0.95600
C873        C  0.34495851  0.68756522  0.71358230    -0.17000
C874        C  0.33868851  0.68340575  0.75553255    -0.32200
H875        H  0.32122083  0.68335343  0.68753998     0.12000
H876        H  0.36318168  0.68844723  0.78046754     0.12600
C877        C  0.15825737  0.82399128  0.79124818    -0.17000
C878        C  0.16497888  0.82787564  0.74945495    -0.32200
H879        H  0.18177724  0.82823520  0.81749302     0.12000
H880        H  0.14069387  0.82272143  0.72431214     0.12600
C881        C  0.28583563  0.94097530  0.55177072    -0.17000
C882        C  0.24895065  0.95390431  0.55584775    -0.32200
H883        H  0.31081779  0.95086223  0.57384736     0.12000
H884        H  0.22372388  0.94012396  0.53724125     0.12600
C885        C  0.21674972  0.57079681  0.95319872    -0.17000
C886        C  0.25359881  0.55758892  0.94925573    -0.32200
H887        H  0.19177771  0.56104179  0.93105561     0.12000
H888        H  0.27883702  0.57121627  0.96796396     0.12600
C889        C  0.16354337  0.67519657  0.81203450    -0.17000
C890        C  0.18697036  0.70877250  0.81140916    -0.32200
H891        H  0.17500717  0.64771584  0.83245569     0.12000
H892        H  0.17985100  0.73330798  0.78549892     0.12600
C893        C  0.31625570  0.80414886  0.69302591    -0.17000
C894        C  0.33945541  0.83790247  0.69164387    -0.32200
H895        H  0.32365284  0.77998685  0.71919589     0.12000
H896        H  0.32785296  0.86489247  0.67058838     0.12600
C897        C  0.36425327  0.56955851  0.04935672    -0.17000
C898        C  0.37982303  0.60700745  0.03745743    -0.32200
H899        H  0.33984802  0.56728084  0.06876077     0.12000
H900        H  0.40546252  0.60831744  0.02014754     0.12600
C901        C  0.12235367  0.90465855  0.46657670    -0.17000
C902        C  0.13748435  0.94221299  0.45418772    -0.32200
H903        H  0.09699940  0.90325900  0.48419148     0.12000
H904        H  0.16157761  0.94457032  0.43443757     0.12600
C905        C  0.05364648  0.01073103  0.81795832    -0.17000
C906        C  0.08570545  0.48668090  0.83592584    -0.32200
H907        H  0.04896237  0.51984512  0.78411968     0.12000
H908        H  0.08946996  0.47711027  0.87043784     0.12600
C909        C  0.41647323  0.02309106  0.66870849    -0.17000
C910        C  0.44928068  0.50317363  0.68677922    -0.32200
H911        H  0.41251041  0.03176138  0.63400043     0.12000
H912        H  0.45384867  0.49217482  0.72085708     0.12600
C913        C  0.10779671  0.83940437  0.62360525    -0.17000
C914        C  0.59968245  0.83617861  0.58050247    -0.32200
H915        H  0.12423903  0.86688154  0.63335695     0.12000
H916        H  0.58832204  0.80630340  0.57053835     0.12600
C917        C  0.39475793  0.67184001  0.88042946    -0.17000
C918        C  0.90427164  0.67633416  0.92568418    -0.32200
H919        H  0.87735311  0.64571417  0.87292957     0.12000
H920        H  0.41627179  0.70618771  0.93249826     0.12600
C921        C  0.89090498  0.36347840  0.37650042    -0.03100
C922        C  0.61142387  0.14851546  0.12863162    -0.03100
N923        N  0.52364526  0.54807127  0.40888896    -0.06700
N924        N  0.54790172  0.55020144  0.37922184    -0.58800
N925        N  0.94723483  0.07876828  0.44893002    -0.06400
N926        N  0.91509047  0.10181351  0.43844676    -0.60900
N927        N  0.47744692  0.10147909  0.46267054    -0.06000
N928        N  0.46619836  0.14117368  0.46088203    -0.58800
N929        N  0.49294322  0.52478668  0.39686537    -0.05600
N930        N  0.49585166  0.51056871  0.35881732    -0.61300
C931        C  0.53010232  0.52729888  0.34804277     0.95500
C932        C  0.42646953  0.14034813  0.44709374     0.95300
N933        N  0.91072267  0.98074702  0.51928292    -0.06900
N934        N  0.89498718  0.99797926  0.05120294    -0.60000
N935        N  0.94568557  0.44558585  0.43039815    -0.05000
N936        N  0.92756380  0.43000762  0.39545133    -0.60600
N937        N  0.94746749  0.41789983  0.46395084    -0.06900
N938        N  0.92885698  0.38311694  0.45181448    -0.59700
N939        N  0.90331710  0.00380728  0.48231800    -0.04600
N940        N  0.88013468  0.03555715  0.48651676    -0.60700
Mn941      Mn  0.94791724  0.01270740  0.43846521     1.18400
C942        C  0.87457490  0.03214918  0.52831585     0.97600
C943        C  0.91654460  0.39105892  0.40837847     0.98200
N944        N  0.55475539  0.09391925  0.04152874    -0.06900
N945        N  0.57352040  0.12864713  0.05350462    -0.63200
N946        N  0.59938684  0.50814950  0.02158258    -0.05700
N947        N  0.62199399  0.47604632  0.01701755    -0.63900
N948        N  0.59139651  0.53166862  0.48425897    -0.06400
N949        N  0.60771351  0.51412637  0.45357779    -0.63500
N950        N  0.55628926  0.06637599  0.07520625    -0.05300
N951        N  0.57442469  0.08206134  0.11009729    -0.64200
Mn952      Mn  0.53719656  0.07101072  0.47399374     1.10700
C953        C  0.58569707  0.12087364  0.09695461     0.98800
C954        C  0.62697786  0.47929102  0.97506880     0.98900
N955        N  0.02535140  0.41056124  0.04276339    -0.06400
N956        N  0.03671927  0.37089184  0.04465329    -0.61800
N957        N  0.00986908  0.98716469  0.10782940    -0.05800
N958        N  0.00698879  0.00131184  0.14592705    -0.58500
N959        N  0.97916284  0.96389315  0.09580657    -0.07100
N960        N  0.95495323  0.96166251  0.12552006    -0.61400
N961        N  0.05604793  0.43349736  0.05608582    -0.06100
N962        N  0.58746260  0.41002979  0.06628163    -0.58600
Mn963      Mn  0.96549412  0.44095857  0.03125376     1.20200
Mn964      Mn  0.55513242  0.49954373  0.06581746     1.10100
Cl965      Cl  0.00138710  0.00609756  0.50216435    -0.86500
C966        C  0.07643849  0.37184106  0.05851568     0.95800
C967        C  0.97276115  0.98451608  0.15673380     0.95600
N968        N  0.80984932  0.18406806  0.54812605    -0.06700
N969        N  0.82228717  0.14523850  0.55455942    -0.58800
N970        N  0.80669875  0.27296493  0.08793310    -0.06400
N971        N  0.82010835  0.29915198  0.11619961    -0.60900
N972        N  0.78140378  0.24690751  0.10442813    -0.06000
N973        N  0.77865077  0.25427331  0.14511470    -0.58800
N974        N  0.83624630  0.20835951  0.53104165    -0.05600
N975        N  0.86755195  0.18521876  0.52572720    -0.61300
C976        C  0.85799847  0.14593927  0.54094961     0.95500
C977        C  0.80262543  0.28751723  0.15146001     0.95300
N978        N  0.77787177  0.35654892  0.98558684    -0.06900
N979        N  0.76683795  0.39497837  0.99151136    -0.59400
N980        N  0.84119660  0.29113465  0.45298034    -0.05000
N981        N  0.87484028  0.30859647  0.44153806    -0.60600
N982        N  0.81161740  0.30157464  0.42233224    -0.06900
N983        N  0.82536264  0.32422240  0.39004842    -0.59700
N984        N  0.80686731  0.34354807  0.01557470    -0.04600
N985        N  0.81672313  0.37289420  0.04218287    -0.60700
Mn986      Mn  0.82428984  0.27725075  0.02244518     1.18400
C987        C  0.79179041  0.40499549  0.02662337     0.97600
C988        C  0.86510499  0.32906515  0.40117870     0.98200
N989        N  0.69034072  0.21076754  0.08260623    -0.06900
N990        N  0.67657078  0.18846413  0.11510422    -0.63200
N991        N  0.69539992  0.16828470  0.48947623    -0.05700
N992        N  0.68576159  0.13888264  0.46286341    -0.63900
N993        N  0.72430507  0.15536047  0.51961216    -0.06400
N994        N  0.73551085  0.11696818  0.51376811    -0.63500
N995        N  0.66082736  0.22064108  0.05169786    -0.05300
N996        N  0.62725572  0.20300307  0.06313877    -0.64200
Mn997      Mn  0.75191329  0.19941538  0.06508784     1.10700
C998        C  0.63691575  0.18314083  0.10381224     0.98800
C999        C  0.71075364  0.10685561  0.47856539     0.98900
N1000       N  0.72073267  0.26538675  0.40064467    -0.06400
N1001       N  0.72369089  0.25831755  0.35994182    -0.61800
N1002       N  0.66577045  0.30324726  0.97360399    -0.05800
N1003       N  0.63423477  0.32619723  0.97857074    -0.58500
N1004       N  0.69220435  0.32768118  0.95677008    -0.07100
N1005       N  0.67954505  0.36642226  0.95012933    -0.61400
N1006       N  0.69554940  0.23904485  0.41692803    -0.06100
N1007       N  0.68241596  0.21293080  0.38842423    -0.58600
Mn1008     Mn  0.75016070  0.31272619  0.44012708     1.20200
Mn1009     Mn  0.67785743  0.23460750  0.48252116     1.10100
Cl1010     Cl  0.75109860  0.25552947  0.00284825    -0.86500
C1011       C  0.69995862  0.22496668  0.35327703     0.95800
C1012       C  0.64366522  0.36551212  0.96334821     0.95600
N1013       N  0.93603905  0.30242534  0.17966416    -0.06700
N1014       N  0.89719494  0.30033922  0.16891933    -0.58800
N1015       N  0.03295050  0.33084338  0.19023906    -0.06400
N1016       N  0.56542808  0.34873057  0.18296939    -0.60900
N1017       N  0.02478792  0.30103287  0.16394317    -0.06000
N1018       N  0.55077752  0.29734114  0.13964018    -0.58800
N1019       N  0.94370605  0.33245562  0.20591906    -0.05600
N1020       N  0.91079290  0.35116707  0.21307712    -0.61300
C1021       C  0.88206306  0.33081001  0.18997736     0.95500
C1022       C  0.57664445  0.32722742  0.15063678     0.95300
N1023       N  0.56405515  0.30603965  0.32229016    -0.06900
N1024       N  0.60288277  0.30047995  0.33114671    -0.59400
N1025       N  0.96440646  0.33583975  0.30501939    -0.05000
N1026       N  0.93335345  0.35899806  0.31195590    -0.60600
N1027       N  0.97285177  0.30700481  0.33723979    -0.06900
N1028       N  0.94775319  0.31050613  0.36662260    -0.59700
N1029       N  0.55555552  0.33470150  0.28999521    -0.04600
N1030       N  0.58841867  0.34881525  0.27611730    -0.60700
Mn1031     Mn  0.99927872  0.33578976  0.24706364     1.18400
C1032       C  0.61747125  0.32717164  0.30191008     0.97600
C1033       C  0.92234796  0.34287736  0.35056463     0.98200
N1034       N  0.52925886  0.20435779  0.16800255    -0.06900
N1035       N  0.55439439  0.20104124  0.13864869    -0.63200
N1036       N  0.94700577  0.17714746  0.21462116    -0.05700
N1037       N  0.91410787  0.16342239  0.22874106    -0.63900
N1038       N  0.93858597  0.20599266  0.18246732    -0.06400
N1039       N  0.89978822  0.21203951  0.17398923    -0.63500
N1040       N  0.53783071  0.17559309  0.20026390    -0.05300
N1041       N  0.56903761  0.15263801  0.19334278    -0.64200
Mn1042     Mn  0.98170904  0.25388731  0.17071391     1.10700
C1043       C  0.57998510  0.16886845  0.15472841     0.98800
C1044       C  0.88513243  0.18549907  0.20330223     0.98900
N1045       N  0.47809578  0.21093402  0.34157336    -0.06400
N1046       N  0.95135278  0.21387183  0.36480820    -0.61800
N1047       N  0.55904887  0.17937362  0.29926042    -0.05800
N1048       N  0.59199544  0.16096007  0.29171045    -0.58500
N1049       N  0.56678263  0.20964477  0.32521679    -0.07100
N1050       N  0.60566550  0.21223031  0.33528229    -0.61400
N1051       N  0.46984049  0.18098282  0.31548154    -0.06100
N1052       N  0.93706931  0.16236348  0.32154941    -0.58600
Mn1053     Mn  0.52108788  0.25808352  0.33430140     1.20200
Mn1054     Mn  0.50319360  0.17585401  0.25846762     1.10100
Cl1055     Cl  0.00153407  0.25599897  0.25143043    -0.86500
C1056       C  0.92563609  0.18388702  0.35376585     0.95800
C1057       C  0.62078777  0.18179398  0.31419858     0.95600
N1058       N  0.80553133  0.42777114  0.32057430    -0.06700
N1059       N  0.82038464  0.39144309  0.33912714    -0.58800
N1060       N  0.78694414  0.02101244  0.35664990    -0.06400
N1061       N  0.79110837  0.04648522  0.38800766    -0.60900
N1062       N  0.75755714  0.99520595  0.36137115    -0.06000
N1063       N  0.74044649  0.00300521  0.39581388    -0.58800
N1064       N  0.83440013  0.45407467  0.31535474    -0.05600
N1065       N  0.86928175  0.43538198  0.33027126    -0.61300
C1066       C  0.86073506  0.39542606  0.34546029     0.95500
C1067       C  0.76213755  0.03484893  0.41230284     0.95300
N1068       N  0.77695324  0.10208351  0.24490071    -0.06900
N1069       N  0.78055047  0.14243063  0.23630683    -0.59400
N1070       N  0.84359138  0.52612467  0.23827233    -0.05000
N1071       N  0.88102139  0.51886691  0.23372833    -0.60600
N1072       N  0.82357648  0.54098166  0.20116665    -0.06900
N1073       N  0.84711462  0.54402717  0.17067806    -0.59700
N1074       N  0.79970080  0.08923856  0.28110114    -0.04600
N1075       N  0.81969673  0.12117721  0.29654310    -0.60700
Mn1076     Mn  0.81722052  0.02252022  0.29831780     1.18400
C1077       C  0.80813986  0.15406580  0.26782340     0.97600
C1078       C  0.88256426  0.53035321  0.19146234     0.98200
N1079       N  0.67906918  0.97153909  0.30375985    -0.06900
N1080       N  0.65547878  0.96865130  0.33420397    -0.63200
N1081       N  0.70311737  0.42271530  0.22372460    -0.05700
N1082       N  0.68306395  0.39073624  0.20845585    -0.63900
N1083       N  0.72600317  0.40993303  0.25984399    -0.06400
N1084       N  0.72248381  0.36958851  0.26852167    -0.63500
N1085       N  0.65912860  0.98640138  0.26660620    -0.05300
N1086       N  0.62171160  0.99384731  0.27109607    -0.64200
Mn1087     Mn  0.74186261  0.45037804  0.31164851     1.10700
C1088       C  0.62008537  0.98244327  0.31336546     0.98800
C1089       C  0.69471947  0.35790081  0.23721098     0.98900
N1090       N  0.74518595  0.51695196  0.14374453    -0.06400
N1091       N  0.76242083  0.50908641  0.10940506    -0.61800
N1092       N  0.66837723  0.05815205  0.18946655    -0.05800
N1093       N  0.63343264  0.07676882  0.17473662    -0.58500
N1094       N  0.69720495  0.08445194  0.18402987    -0.07100
N1095       N  0.68223752  0.12072529  0.16541179    -0.61400
N1096       N  0.71583201  0.49109477  0.14843380    -0.06100
N1097       N  0.71180789  0.46552674  0.11717792    -0.58600
Mn1098     Mn  0.76091739  0.06168568  0.19307038     1.20200
Mn1099     Mn  0.68547488  0.48944101  0.20660365     1.10100
Cl1100     Cl  0.75141049  0.00608967  0.25247971    -0.86500
C1101       C  0.74082055  0.47715747  0.09296471     0.95800
C1102       C  0.64186533  0.11667996  0.15938944     0.95600
C1103       C  0.84471045  0.18817610  0.21412156    -0.17000
C1104       C  0.83833621  0.18375596  0.25602373    -0.32200
H1105       H  0.82097672  0.18428077  0.18800420     0.12000
H1106       H  0.86279996  0.18858680  0.28104506     0.12600
C1107       C  0.65797213  0.32482615  0.29133298    -0.17000
C1108       C  0.66446095  0.32849773  0.24944460    -0.32200
H1109       H  0.68157403  0.32936503  0.31743577     0.12000
H1110       H  0.64007419  0.32317987  0.22445280     0.12600
C1111       C  0.78607734  0.44101268  0.05198764    -0.17000
C1112       C  0.74923735  0.45408436  0.05607711    -0.32200
H1113       H  0.81110762  0.45083958  0.07402627     0.12000
H1114       H  0.72397632  0.44035311  0.03748752     0.12600
C1115       C  0.71673041  0.07083234  0.45327929    -0.17000
C1116       C  0.75365641  0.05799690  0.44915085    -0.32200
H1117       H  0.69176458  0.06079326  0.43131490     0.12000
H1118       H  0.77883856  0.07191291  0.46766172     0.12600
C1119       C  0.66339841  0.17536071  0.31183406    -0.17000
C1120       C  0.68661430  0.20910942  0.31122704    -0.32200
H1121       H  0.67509735  0.14789394  0.33205534     0.12000
H1122       H  0.67928793  0.23365194  0.28542511     0.12600
C1123       C  0.81616124  0.30388072  0.19319454    -0.17000
C1124       C  0.83944026  0.33756075  0.19190804    -0.32200
H1125       H  0.82346323  0.27965007  0.21940616     0.12000
H1126       H  0.82790189  0.36463668  0.17085298     0.12600
C1127       C  0.86379513  0.06929228  0.54894561    -0.17000
C1128       C  0.87931914  0.10680911  0.53716576    -0.32200
H1129       H  0.83934455  0.06691140  0.56823790     0.12000
H1130       H  0.90497350  0.10819660  0.51995807     0.12600
C1131       C  0.62203079  0.40453729  0.96673697    -0.17000
C1132       C  0.63720211  0.44203771  0.95428048    -0.32200
H1133       H  0.59666742  0.40318961  0.98440570     0.12000
H1134       H  0.66126891  0.44431935  0.93445125     0.12600
C1135       C  0.55352594  0.50945191  0.31803215    -0.17000
C1136       C  0.58578277  0.98799289  0.33589892    -0.32200
H1137       H  0.54885003  0.02067249  0.28387367     0.12000
H1138       H  0.58956404  0.97862841  0.37046345     0.12600
C1139       C  0.91676776  0.52467479  0.16884688    -0.17000
C1140       C  0.94931848  0.00222465  0.18684419    -0.32200
H1141       H  0.91289099  0.53377080  0.13423453     0.12000
H1142       H  0.95405642  0.99165277  0.22104062     0.12600
C1143       C  0.60768326  0.33931323  0.12375492    -0.17000
C1144       C  0.09938994  0.33608172  0.08046520    -0.32200
H1145       H  0.62411259  0.36676846  0.13360511     0.12000
H1146       H  0.08793193  0.30627106  0.07038973     0.12600
C1147       C  0.89452466  0.17182638  0.38054977    -0.17000
C1148       C  0.40359945  0.17624673  0.42531877    -0.32200
H1149       H  0.37684560  0.14553188  0.37255354     0.12000
H1150       H  0.91613838  0.20613481  0.43261353     0.12600
C1151       C  0.89056740  0.36320849  0.87781323    -0.03100
C1152       C  0.61191573  0.14868065  0.62742732    -0.03100
N1153       N  0.52433463  0.54810602  0.90908740    -0.06700
N1154       N  0.54856446  0.55036356  0.87937794    -0.58800
N1155       N  0.94652432  0.07869786  0.94921500    -0.06400
N1156       N  0.91420774  0.10154986  0.93908755    -0.60900
N1157       N  0.47818016  0.10159802  0.96275383    -0.06000
N1158       N  0.46723264  0.14141449  0.96052888    -0.58800
N1159       N  0.49353842  0.52500053  0.89690997    -0.05600
N1160       N  0.49632900  0.51108071  0.85870732    -0.61300
C1161       C  0.53060291  0.52778740  0.84799719     0.95500
C1162       C  0.42755484  0.14087977  0.94640226     0.95300
N1163       N  0.91136314  0.98051171  0.02050921    -0.06900
N1164       N  0.89369364  0.99809070  0.54959757    -0.60000
N1165       N  0.94607200  0.44523920  0.93083398    -0.05000
N1166       N  0.92750858  0.42962276  0.89615381    -0.60600
N1167       N  0.94801246  0.41766168  0.96450742    -0.06900
N1168       N  0.92906488  0.38295421  0.95274150    -0.59700
N1169       N  0.90351332  0.00361421  0.98360511    -0.04600
N1170       N  0.88066777  0.03550005  0.98827490    -0.60700
Mn1171     Mn  0.94746278  0.01261050  0.93903427     1.18400
C1172       C  0.87580491  0.03213694  0.03025911     0.97600
C1173       C  0.91633710  0.39083948  0.90941300     0.98200
N1174       N  0.55463888  0.09417617  0.54073966    -0.06900
N1175       N  0.57355681  0.12888908  0.55250411    -0.63200
N1176       N  0.59918456  0.50854357  0.52115937    -0.05700
N1177       N  0.62193966  0.47658712  0.51651081    -0.63900
N1178       N  0.59182371  0.53129993  0.98467136    -0.06400
N1179       N  0.60814171  0.51362505  0.95405472    -0.63500
N1180       N  0.55648634  0.06662391  0.57442633    -0.05300
N1181       N  0.57496774  0.08227501  0.60912720    -0.64200
Mn1182     Mn  0.53778006  0.07076368  0.97457985     1.10700
C1183       C  0.58618090  0.12103971  0.59584600     0.98800
C1184       C  0.62677186  0.47990190  0.47452346     0.98900
N1185       N  0.02458443  0.41043099  0.54251904    -0.06400
N1186       N  0.03572821  0.37066216  0.54487396    -0.61800
N1187       N  0.00915460  0.98726508  0.60754317    -0.05800
N1188       N  0.00645444  0.00124735  0.64574062    -0.58500
N1189       N  0.97815331  0.96446394  0.59528112    -0.07100
N1190       N  0.95385548  0.96249410  0.62493794    -0.61400
N1191       N  0.05537755  0.43327266  0.55578520    -0.06100
N1192       N  0.58787615  0.41030019  0.56521594    -0.58600
Mn1193     Mn  0.96483941  0.44104066  0.53093202     1.20200
Mn1194     Mn  0.55515784  0.49966081  0.56558826     1.10100
Cl1195     Cl  0.00137339  0.00613939  0.00229252    -0.86500
C1196       C  0.07542261  0.37143051  0.55892325     0.95800
C1197       C  0.97202448  0.98487895  0.65638140     0.95600
N1198       N  0.81010874  0.18340982  0.04897100    -0.06700
N1199       N  0.82290806  0.14471461  0.05573327    -0.58800
N1200       N  0.80685267  0.27361715  0.58735238    -0.06400
N1201       N  0.82023204  0.29966980  0.61582894    -0.60900
N1202       N  0.78141627  0.24760112  0.60365363    -0.06000
N1203       N  0.77848199  0.25482952  0.64431788    -0.58800
N1204       N  0.83648018  0.20787009  0.03204905    -0.05600
N1205       N  0.86811258  0.18502630  0.02720548    -0.61300
C1206       C  0.85880994  0.14571687  0.04252227     0.95500
C1207       C  0.80250439  0.28795724  0.65093882     0.95300
N1208       N  0.77787418  0.35737685  0.48519262    -0.06900
N1209       N  0.76688647  0.39574345  0.49145245    -0.59400
N1210       N  0.84128668  0.29040111  0.95397479    -0.05000
N1211       N  0.87480569  0.30830291  0.94277931    -0.60600
N1212       N  0.81175362  0.30053077  0.92316791    -0.06900
N1213       N  0.82541794  0.32338538  0.89099040    -0.59700
N1214       N  0.80700832  0.34423384  0.51496249    -0.04600
N1215       N  0.81699229  0.37340916  0.54173121    -0.60700
Mn1216     Mn  0.82433238  0.27789299  0.52163528     1.18400
C1217       C  0.79200779  0.40555939  0.52653329     0.97600
C1218       C  0.86501317  0.32871160  0.90242779     0.98200
N1219       N  0.69048584  0.21158658  0.58193807    -0.06900
N1220       N  0.67686847  0.18883846  0.61422057    -0.63200
N1221       N  0.69548018  0.16757070  0.98999168    -0.05700
N1222       N  0.68588219  0.13838113  0.96313868    -0.63900
N1223       N  0.72443292  0.15454635  0.02004132    -0.06400
N1224       N  0.73570737  0.11624630  0.01385437    -0.63500
N1225       N  0.66093615  0.22148411  0.55106980    -0.05300
N1226       N  0.62747537  0.20350965  0.56233220    -0.64200
Mn1227     Mn  0.75187174  0.20026030  0.56436059     1.10700
C1228       C  0.63730048  0.18331903  0.60278503     0.98800
C1229       C  0.71091989  0.10634480  0.97855311     0.98900
N1230       N  0.72103618  0.26435480  0.90125373    -0.06400
N1231       N  0.72420029  0.25726545  0.86060757    -0.61800
N1232       N  0.66555225  0.30405520  0.47308249    -0.05800
N1233       N  0.63386877  0.32690680  0.47781281    -0.58500
N1234       N  0.69201764  0.32856673  0.45640224    -0.07100
N1235       N  0.67924494  0.36725570  0.44966776    -0.61400
N1236       N  0.69566301  0.23813874  0.91737956    -0.06100
N1237       N  0.68253801  0.21209994  0.88875970    -0.58600
Mn1238     Mn  0.75033043  0.31171396  0.94070329     1.20200
Mn1239     Mn  0.67791392  0.23379048  0.98307494     1.10100
Cl1240     Cl  0.75104076  0.25639482  0.50214331    -0.86500
C1241       C  0.70036247  0.22404153  0.85376215     0.95800
C1242       C  0.64326541  0.36625230  0.46263820     0.95600
N1243       N  0.93571135  0.30215332  0.68161744    -0.06700
N1244       N  0.89694758  0.30028079  0.67028053    -0.58800
N1245       N  0.03239448  0.33073473  0.69241981    -0.06400
N1246       N  0.56594274  0.34905633  0.68068433    -0.60900
N1247       N  0.02438282  0.30077204  0.66629736    -0.06000
N1248       N  0.55112385  0.29775516  0.63730002    -0.58800
N1249       N  0.94319675  0.33213874  0.70795262    -0.05600
N1250       N  0.91020926  0.35102420  0.71464308    -0.61300
C1251       C  0.88165131  0.33081293  0.69109199     0.95500
C1252       C  0.57712310  0.32749136  0.64837730     0.95300
N1253       N  0.56481400  0.30628929  0.82005572    -0.06900
N1254       N  0.60359280  0.30014756  0.82860609    -0.59400
N1255       N  0.96402243  0.33541474  0.80691268    -0.05000
N1256       N  0.93296486  0.35859284  0.81363485    -0.60600
N1257       N  0.97242037  0.30662426  0.83918276    -0.06900
N1258       N  0.94724385  0.31017281  0.86843950    -0.59700
N1259       N  0.55645079  0.33478468  0.78755952    -0.04600
N1260       N  0.58939926  0.34808053  0.77318777    -0.60700
Mn1261     Mn  0.99873852  0.33551514  0.74917852     1.18400
C1262       C  0.61832134  0.32616169  0.79891137     0.97600
C1263       C  0.92189554  0.34250454  0.85215168     0.98200
N1264       N  0.52982887  0.20481623  0.66606841    -0.06900
N1265       N  0.55503075  0.20137496  0.63683045    -0.63200
N1266       N  0.94647822  0.17696555  0.71649724    -0.05700
N1267       N  0.91348112  0.16334423  0.73048960    -0.63900
N1268       N  0.93820598  0.20579579  0.68431207    -0.06400
N1269       N  0.89943007  0.21193074  0.67566538    -0.63500
N1270       N  0.53833805  0.17611219  0.69840573    -0.05300
N1271       N  0.56952234  0.15308718  0.69171548    -0.64200
Mn1272     Mn  0.98140354  0.25363466  0.67283065     1.10700
C1273       C  0.58052753  0.16920002  0.65316069     0.98800
C1274       C  0.88461100  0.18546430  0.70491516     0.98900
N1275       N  0.47876928  0.21143294  0.83939171    -0.06400
N1276       N  0.95056657  0.21361371  0.86675045    -0.61800
N1277       N  0.55966538  0.17980498  0.79721029    -0.05800
N1278       N  0.59261272  0.16102535  0.79019797    -0.58500
N1279       N  0.56732441  0.20997981  0.82327914    -0.07100
N1280       N  0.60614466  0.21210014  0.83407200    -0.61400
N1281       N  0.47049886  0.18143785  0.81336410    -0.06100
N1282       N  0.93610767  0.16241529  0.82314977    -0.58600
Mn1283     Mn  0.52171704  0.25852210  0.83218400     1.20200
Mn1284     Mn  0.50384190  0.17628293  0.75640290     1.10100
Cl1285     Cl  0.00108163  0.25569105  0.75357823    -0.86500
C1286       C  0.92463670  0.18390952  0.85536183     0.95800
C1287       C  0.62131733  0.18152551  0.81323199     0.95600
N1288       N  0.80529514  0.42725558  0.82106378    -0.06700
N1289       N  0.82006314  0.39102226  0.84004080    -0.58800
N1290       N  0.78624300  0.02031452  0.85688503    -0.06400
N1291       N  0.79055442  0.04527652  0.88868207    -0.60900
N1292       N  0.75678017  0.99451411  0.86125005    -0.06000
N1293       N  0.73975067  0.00182748  0.89588334    -0.58800
N1294       N  0.83419352  0.45355700  0.81594031    -0.05600
N1295       N  0.86901107  0.43493492  0.83126484    -0.61300
C1296       C  0.86040841  0.39505046  0.84662175     0.95500
C1297       C  0.76159212  0.03335251  0.91286116     0.95300
N1298       N  0.77657328  0.10203554  0.74556435    -0.06900
N1299       N  0.77992424  0.14244888  0.73726516    -0.59400
N1300       N  0.84372990  0.52601981  0.73904505    -0.05000
N1301       N  0.88117804  0.51862941  0.73464161    -0.60600
N1302       N  0.82394163  0.54123884  0.70194396    -0.06900
N1303       N  0.84767025  0.54445426  0.67163993    -0.59700
N1304       N  0.79922140  0.08910084  0.78180163    -0.04600
N1305       N  0.81895430  0.12107304  0.79754027    -0.60700
Mn1306     Mn  0.81687815  0.02231604  0.79878501     1.18400
C1307       C  0.80733989  0.15406003  0.76895583     0.97600
C1308       C  0.88298378  0.53045167  0.69248639     0.98200
N1309       N  0.67845546  0.97075518  0.80292668    -0.06900
N1310       N  0.65457340  0.96716577  0.83307940    -0.63200
N1311       N  0.70348728  0.42305231  0.72307635    -0.05700
N1312       N  0.68398962  0.39107353  0.70705420    -0.63900
N1313       N  0.72613628  0.41003499  0.75927763    -0.06400
N1314       N  0.72298576  0.36956287  0.76732306    -0.63500
N1315       N  0.65870016  0.98595130  0.76579159    -0.05300
N1316       N  0.62113870  0.99298785  0.77004756    -0.64200
Mn1317     Mn  0.74164651  0.45000836  0.81151942     1.10700
C1318       C  0.61921694  0.98096274  0.81214613     0.98800
C1319       C  0.69572013  0.35798829  0.73545065     0.98900
N1320       N  0.74578638  0.51759934  0.64377921    -0.06400
N1321       N  0.76307684  0.50999838  0.60940399    -0.61800
N1322       N  0.66851276  0.05839067  0.68899082    -0.05800
N1323       N  0.63366296  0.07700264  0.67383403    -0.58500
N1324       N  0.69739886  0.08468353  0.68375356    -0.07100
N1325       N  0.68257177  0.12091545  0.66482254    -0.61400
N1326       N  0.71637169  0.49175697  0.64819046    -0.06100
N1327       N  0.71235714  0.46645369  0.61670160    -0.58600
Mn1328     Mn  0.76110755  0.06196401  0.69337139     1.20200
Mn1329     Mn  0.68576245  0.48983262  0.70621098     1.10100
Cl1330     Cl  0.75128467  0.00602920  0.75241169    -0.86500
C1331       C  0.74144085  0.47823794  0.59264782     0.95800
C1332       C  0.64221342  0.11687494  0.65843955     0.95600
C1333       C  0.84410851  0.18826247  0.71549756    -0.17000
C1334       C  0.83751237  0.18386750  0.75733576    -0.32200
H1335       H  0.82047479  0.18443566  0.68925421     0.12000
H1336       H  0.86187042  0.18871146  0.78246706     0.12600
C1337       C  0.65887159  0.32332849  0.78848128    -0.17000
C1338       C  0.66565440  0.32791614  0.74672425    -0.32200
H1339       H  0.68242875  0.32700996  0.81485711     0.12000
H1340       H  0.64137557  0.32317359  0.72144295     0.12600
C1341       C  0.78656533  0.44145681  0.55216758    -0.17000
C1342       C  0.74989357  0.45546716  0.55558213    -0.32200
H1343       H  0.81150713  0.45048842  0.57484181     0.12000
H1344       H  0.72455236  0.44257496  0.53629691     0.12600
C1345       C  0.71651467  0.07034703  0.95309991    -0.17000
C1346       C  0.75315905  0.05605241  0.95000981    -0.32200
H1347       H  0.69167758  0.06144957  0.93019989     0.12000
H1348       H  0.77848333  0.06876165  0.96949885     0.12600
C1349       C  0.66399214  0.17456249  0.81187696    -0.17000
C1350       C  0.68745563  0.20811958  0.81162442    -0.32200
H1351       H  0.67512781  0.14715741  0.83252664     0.12000
H1352       H  0.68074141  0.23256876  0.78563063     0.12600
C1353       C  0.81563980  0.30408896  0.69289798    -0.17000
C1354       C  0.83895529  0.33774820  0.69219429    -0.32200
H1355       H  0.82260925  0.27976372  0.71899873     0.12000
H1356       H  0.82776640  0.36487980  0.67111122     0.12600
C1357       C  0.86529406  0.06921780  0.05112220    -0.17000
C1358       C  0.88059297  0.10677810  0.03916715    -0.32200
H1359       H  0.84085754  0.06679480  0.07046660     0.12000
H1360       H  0.90622712  0.10826699  0.02184432     0.12600
C1361       C  0.62145956  0.40526302  0.46567148    -0.17000
C1362       C  0.63696515  0.44271975  0.45366090    -0.32200
H1363       H  0.59572120  0.40397196  0.48277003     0.12000
H1364       H  0.66147523  0.44493948  0.43442832     0.12600
C1365       C  0.55379384  0.51020189  0.81762915    -0.17000
C1366       C  0.58474270  0.98616250  0.83459490    -0.32200
H1367       H  0.54975504  0.02279151  0.78403784     0.12000
H1368       H  0.58795971  0.97523315  0.86879781     0.12600
C1369       C  0.91727320  0.52477385  0.66995693    -0.17000
C1370       C  0.94916682  0.00227598  0.68720393    -0.32200
H1371       H  0.91380287  0.53486950  0.63554543     0.12000
H1372       H  0.95300430  0.98975634  0.72084951     0.12600
C1373       C  0.60853245  0.33915619  0.62181432    -0.17000
C1374       C  0.09789449  0.33581487  0.58184034    -0.32200
H1375       H  0.62524103  0.36633812  0.63190408     0.12000
H1376       H  0.08630753  0.30586925  0.57239538     0.12600
C1377       C  0.89314611  0.17208744  0.88175461    -0.17000
C1378       C  0.40516200  0.17678162  0.92396068    -0.32200
H1379       H  0.37842593  0.14525052  0.87166988     0.12000
H1380       H  0.91442892  0.20585783  0.93427133     0.12600
C1381       C  0.89123479  0.86351249  0.37638464    -0.03100
C1382       C  0.61173098  0.64866940  0.12831285    -0.03100
N1383       N  0.52369644  0.04810885  0.40916004    -0.06700
N1384       N  0.54788493  0.05043266  0.37942666    -0.58800
N1385       N  0.94719929  0.57879672  0.44926737    -0.06400
N1386       N  0.91522513  0.60214165  0.43882140    -0.60900
N1387       N  0.47731645  0.60152430  0.46229831    -0.06000
N1388       N  0.46598890  0.64120271  0.46041729    -0.58800
N1389       N  0.49301453  0.02481275  0.39711519    -0.05600
N1390       N  0.49588368  0.01074881  0.35898104    -0.61300
C1391       C  0.53007940  0.02761789  0.34817658     0.95500
C1392       C  0.42626975  0.64029802  0.44655840     0.95300
N1393       N  0.91076336  0.48082855  0.52025775    -0.06900
N1394       N  0.89479276  0.49794599  0.05112017    -0.60000
N1395       N  0.94647682  0.94557498  0.42979586    -0.05000
N1396       N  0.92835184  0.92987898  0.39490932    -0.60600
N1397       N  0.94795443  0.91806344  0.46349373    -0.06900
N1398       N  0.92913827  0.88335453  0.45153696    -0.59700
N1399       N  0.90321738  0.50400015  0.48335853    -0.04600
N1400       N  0.88057732  0.53607697  0.48792210    -0.60700
Mn1401     Mn  0.94748750  0.51262938  0.43913092     1.18400
C1402       C  0.87555344  0.53279601  0.52986031     0.97600
C1403       C  0.91700641  0.89110437  0.40807296     0.98200
N1404       N  0.55509634  0.59425864  0.04090721    -0.06900
N1405       N  0.57374331  0.62903412  0.05300982    -0.63200
N1406       N  0.59936082  0.00816541  0.02261317    -0.05700
N1407       N  0.62256083  0.97643596  0.01839830    -0.63900
N1408       N  0.59140566  0.03155580  0.48456137    -0.06400
N1409       N  0.60779967  0.01406596  0.45389674    -0.63500
N1410       N  0.55687837  0.56659315  0.07447631    -0.05300
N1411       N  0.57502200  0.58218108  0.10940213    -0.64200
Mn1412     Mn  0.53714801  0.57112446  0.47367449     1.10700
C1413       C  0.58607171  0.62110540  0.09644441     0.98800
C1414       C  0.62814584  0.97989425  0.97660673     0.98900
N1415       N  0.02532147  0.91056612  0.04213269    -0.06400
N1416       N  0.03652720  0.87085941  0.04392918    -0.61800
N1417       N  0.00964341  0.48738653  0.10803381    -0.05800
N1418       N  0.00672431  0.50163018  0.14606421    -0.58500
N1419       N  0.97893738  0.46410968  0.09600106    -0.07100
N1420       N  0.95466196  0.46201434  0.12564688    -0.61400
N1421       N  0.05611099  0.93340011  0.05537534    -0.06100
N1422       N  0.58751375  0.91014928  0.06630044    -0.58600
Mn1423     Mn  0.96558181  0.94105313  0.03095056     1.20200
Mn1424     Mn  0.55477369  0.99925399  0.06646922     1.10100
Cl1425     Cl  0.00122362  0.50590219  0.50266242    -0.86500
C1426       C  0.07626504  0.87163838  0.05767325     0.95800
C1427       C  0.97246218  0.48492471  0.15681938     0.95600
N1428       N  0.81029359  0.68441454  0.54818325    -0.06700
N1429       N  0.82293043  0.64566506  0.55480347    -0.58800
N1430       N  0.80712438  0.77304846  0.08798921    -0.06400
N1431       N  0.82021591  0.79919410  0.11647334    -0.60900
N1432       N  0.78192891  0.74671692  0.10426563    -0.06000
N1433       N  0.77892910  0.75381973  0.14495075    -0.58800
N1434       N  0.83673632  0.70884715  0.53136525    -0.05600
N1435       N  0.86825915  0.68588350  0.52638689    -0.61300
C1436       C  0.85880914  0.64656700  0.54159017     0.95500
C1437       C  0.80264565  0.78718377  0.15160602     0.95300
N1438       N  0.77850692  0.85675910  0.98537684    -0.06900
N1439       N  0.76735294  0.89516844  0.99123965    -0.59400
N1440       N  0.84173579  0.79141636  0.45325905    -0.05000
N1441       N  0.87532153  0.80904877  0.44185506    -0.60600
N1442       N  0.81224825  0.80127519  0.42231435    -0.06900
N1443       N  0.82605294  0.82357243  0.38983017    -0.59700
N1444       N  0.80740763  0.84380420  0.01550300    -0.04600
N1445       N  0.81709536  0.87318909  0.04212241    -0.60700
Mn1446     Mn  0.82487917  0.77747932  0.02242765     1.18400
C1447       C  0.79213671  0.90524872  0.02644441     0.97600
C1448       C  0.86570447  0.82889576  0.40116966     0.98200
N1449       N  0.69105223  0.71055807  0.08254577    -0.06900
N1450       N  0.67728032  0.68792830  0.11482347    -0.63200
N1451       N  0.69566027  0.66847859  0.48936594    -0.05700
N1452       N  0.68580156  0.63912177  0.46276968    -0.63900
N1453       N  0.72465109  0.65548876  0.51936335    -0.06400
N1454       N  0.73568043  0.61705029  0.51345089    -0.63500
N1455       N  0.66149507  0.72098172  0.05186744    -0.05300
N1456       N  0.62784082  0.70352126  0.06327786    -0.64200
Mn1457     Mn  0.75251419  0.69937539  0.06479132     1.10700
C1458       C  0.63754446  0.68307684  0.10365255     0.98800
C1459       C  0.71072942  0.60701904  0.47833781     0.98900
N1460       N  0.72117570  0.76508021  0.40048707    -0.06400
N1461       N  0.72396584  0.75765925  0.35982242    -0.61800
N1462       N  0.66653035  0.80372875  0.97384286    -0.05800
N1463       N  0.63521191  0.82686301  0.97912048    -0.58500
N1464       N  0.69295267  0.82802813  0.95681530    -0.07100
N1465       N  0.68052277  0.86685936  0.95038941    -0.61400
N1466       N  0.69587912  0.73902972  0.41699237    -0.06100
N1467       N  0.68251064  0.71279370  0.38875949    -0.58600
Mn1468     Mn  0.75065255  0.81262287  0.43978847     1.20200
Mn1469     Mn  0.67826112  0.73477825  0.48246608     1.10100
Cl1470     Cl  0.75169675  0.75570180  0.00278287    -0.86500
C1471       C  0.70001732  0.72438941  0.35350682     0.95800
C1472       C  0.64478600  0.86614642  0.96393839     0.95600
N1473       N  0.93584543  0.80234579  0.17975072    -0.06700
N1474       N  0.89696298  0.79980028  0.16964557    -0.58800
N1475       N  0.03279046  0.83100961  0.18949524    -0.06400
N1476       N  0.56558305  0.84971821  0.18317367    -0.60900
N1477       N  0.02452318  0.80107420  0.16338795    -0.06000
N1478       N  0.55126684  0.79818123  0.13996320    -0.58800
N1479       N  0.94358596  0.83261242  0.20571008    -0.05600
N1480       N  0.91064917  0.85106496  0.21322474    -0.61300
C1481       C  0.88185291  0.83026058  0.19071139     0.95500
C1482       C  0.57700653  0.82814801  0.15098155     0.95300
N1483       N  0.56407202  0.80616244  0.32224056    -0.06900
N1484       N  0.60286987  0.80013069  0.33072038    -0.59400
N1485       N  0.96477815  0.83639518  0.30471131    -0.05000
N1486       N  0.93357891  0.85935867  0.31164041    -0.60600
N1487       N  0.97335549  0.80763802  0.33697723    -0.06900
N1488       N  0.94823368  0.81096669  0.36634261    -0.59700
N1489       N  0.55564148  0.83501469  0.29009655    -0.04600
N1490       N  0.58853639  0.84876227  0.27598130    -0.60700
Mn1491     Mn  0.99942802  0.83612722  0.24651323     1.18400
C1492       C  0.61751729  0.82669101  0.30142034     0.97600
C1493       C  0.92264483  0.84314099  0.35026654     0.98200
N1494       N  0.52975832  0.70512281  0.16752947    -0.06900
N1495       N  0.55487240  0.70163122  0.13816074    -0.63200
N1496       N  0.94707712  0.67728445  0.21494410    -0.05700
N1497       N  0.91420055  0.66319045  0.22880491    -0.63900
N1498       N  0.93860151  0.70594524  0.18264369    -0.06400
N1499       N  0.89978056  0.71152008  0.17376084    -0.63500
N1500       N  0.53820666  0.67629583  0.19975605    -0.05300
N1501       N  0.56927551  0.65315272  0.19283928    -0.64200
Mn1502     Mn  0.98154626  0.75391678  0.17066645     1.10700
C1503       C  0.58028911  0.66927524  0.15423728     0.98800
C1504       C  0.88516937  0.68484514  0.20299138     0.98900
N1505       N  0.47792168  0.71110851  0.34087534    -0.06400
N1506       N  0.95181592  0.71473433  0.36531117    -0.61800
N1507       N  0.55894136  0.67967720  0.29883998    -0.05800
N1508       N  0.59183559  0.66087854  0.29175961    -0.58500
N1509       N  0.56662745  0.70971355  0.32508188    -0.07100
N1510       N  0.60546671  0.71171982  0.33590158    -0.61400
N1511       N  0.46972688  0.68130261  0.31458209    -0.06100
N1512       N  0.93712971  0.66330451  0.32204539    -0.58600
Mn1513     Mn  0.52097189  0.75826228  0.33403751     1.20200
Mn1514     Mn  0.50335483  0.67635608  0.25771984     1.10100
Cl1515     Cl  0.00160957  0.75636479  0.25131365    -0.86500
C1516       C  0.92593598  0.68485199  0.35436658     0.95800
C1517       C  0.62057475  0.68118975  0.31490085     0.95600
N1518       N  0.80554982  0.92770993  0.32097749    -0.06700
N1519       N  0.82046167  0.89142848  0.33963363    -0.58800
N1520       N  0.78672748  0.52100166  0.35640338    -0.06400
N1521       N  0.79072924  0.54657300  0.38765923    -0.60900
N1522       N  0.75737397  0.49513948  0.36108263    -0.06000
N1523       N  0.74012071  0.50300479  0.39541230    -0.58800
N1524       N  0.83440907  0.95396707  0.31551994    -0.05600
N1525       N  0.86932695  0.93530162  0.33027863    -0.61300
C1526       C  0.86083578  0.89541164  0.34565386     0.95500
C1527       C  0.76170440  0.53494276  0.41186036     0.95300
N1528       N  0.77661803  0.60215958  0.24497258    -0.06900
N1529       N  0.78015733  0.64250230  0.23630254    -0.59400
N1530       N  0.84368761  0.02575666  0.23831494    -0.05000
N1531       N  0.88109507  0.01828267  0.23380026    -0.60600
N1532       N  0.82374642  0.04067960  0.20118351    -0.06900
N1533       N  0.84732895  0.04357075  0.17072903    -0.59700
N1534       N  0.79948275  0.58937019  0.28110370    -0.04600
N1535       N  0.81954105  0.62133832  0.29639012    -0.60700
Mn1536     Mn  0.81710472  0.52265514  0.29822464     1.18400
C1537       C  0.80790575  0.65417862  0.26763495     0.97600
C1538       C  0.88271942  0.02972515  0.19153771     0.98200
N1539       N  0.67897922  0.47108139  0.30364392    -0.06900
N1540       N  0.65543219  0.46805967  0.33412705    -0.63200
N1541       N  0.70315250  0.92295266  0.22382264    -0.05700
N1542       N  0.68317924  0.89102820  0.20832134    -0.63900
N1543       N  0.72582758  0.91010012  0.26006913    -0.06400
N1544       N  0.72219824  0.86975359  0.26864143    -0.63500
N1545       N  0.65897513  0.48596064  0.26654062    -0.05300
N1546       N  0.62154973  0.49325963  0.27108055    -0.64200
Mn1547     Mn  0.74187517  0.95051986  0.31190309     1.10700
C1548       C  0.61999176  0.48177714  0.31334456     0.98800
C1549       C  0.69466278  0.85813561  0.23705960     0.98900
N1550       N  0.74529034  0.01702506  0.14358611    -0.06400
N1551       N  0.76245216  0.00924617  0.10917035    -0.61800
N1552       N  0.66819521  0.55803967  0.18946662    -0.05800
N1553       N  0.63332316  0.57674868  0.17454024    -0.58500
N1554       N  0.69707318  0.58433321  0.18424869    -0.07100
N1555       N  0.68223820  0.62066459  0.16568589    -0.61400
N1556       N  0.71592944  0.99118086  0.14828725    -0.06100
N1557       N  0.71183253  0.96570032  0.11693334    -0.58600
Mn1558     Mn  0.76072277  0.56170848  0.19317257     1.20200
Mn1559     Mn  0.68561930  0.98963941  0.20661819     1.10100
Cl1560     Cl  0.75128951  0.50604858  0.25241447    -0.86500
C1561       C  0.74081831  0.97737223  0.09266787     0.95800
C1562       C  0.64188716  0.61670086  0.15934904     0.95600
C1563       C  0.84467247  0.68725980  0.21355495    -0.17000
C1564       C  0.83817691  0.68358133  0.25544137    -0.32200
H1565       H  0.82107773  0.68277490  0.18745284     0.12000
H1566       H  0.86255336  0.68886014  0.28043144     0.12600
C1567       C  0.65796127  0.82405810  0.29065722    -0.17000
C1568       C  0.66439535  0.82849441  0.24877420    -0.32200
H1569       H  0.68165919  0.82789806  0.31680576     0.12000
H1570       H  0.63996902  0.82371121  0.22372033     0.12600
C1571       C  0.78622425  0.94127518  0.05176506    -0.17000
C1572       C  0.74932415  0.95427614  0.05578672    -0.32200
H1573       H  0.81117947  0.95117383  0.07383615     0.12000
H1574       H  0.72412908  0.94050116  0.03715784     0.12600
C1575       C  0.71645036  0.57100265  0.45295784    -0.17000
C1576       C  0.75329377  0.55799728  0.44877662    -0.32200
H1577       H  0.69140390  0.56114091  0.43096168     0.12000
H1578       H  0.77855566  0.57176680  0.46732751     0.12600
C1579       C  0.66319889  0.67431793  0.31309342    -0.17000
C1580       C  0.68654082  0.70795031  0.31179352    -0.32200
H1581       H  0.67464576  0.64727031  0.33424021     0.12000
H1582       H  0.67933663  0.73213238  0.28552171     0.12600
C1583       C  0.81598390  0.80305551  0.19364664    -0.17000
C1584       C  0.83924406  0.83676863  0.19301950    -0.32200
H1585       H  0.82326939  0.77852493  0.21946828     0.12000
H1586       H  0.82759598  0.86422634  0.17275127     0.12600
C1587       C  0.86528203  0.57003199  0.55065408    -0.17000
C1588       C  0.88044789  0.60754242  0.53821173    -0.32200
H1589       H  0.84120043  0.56773417  0.57045120     0.12000
H1590       H  0.90581944  0.60889989  0.52058135     0.12600
C1591       C  0.62343219  0.90526115  0.96767505    -0.17000
C1592       C  0.63896901  0.94278529  0.95595553    -0.32200
H1593       H  0.59773206  0.90385441  0.98481832     0.12000
H1594       H  0.66347917  0.94518562  0.93674266     0.12600
C1595       C  0.55351976  0.00997585  0.31803941    -0.17000
C1596       C  0.58580066  0.48753704  0.33597415    -0.32200
H1597       H  0.54872192  0.51981132  0.28378946     0.12000
H1598       H  0.58967837  0.47843746  0.37058394     0.12600
C1599       C  0.91700321  0.02412519  0.16897127    -0.17000
C1600       C  0.94904753  0.50278998  0.18681041    -0.32200
H1601       H  0.91317736  0.03340176  0.13438957     0.12000
H1602       H  0.95384196  0.49243229  0.22105344     0.12600
C1603       C  0.60810559  0.84015683  0.12416116    -0.17000
C1604       C  0.09903952  0.83573415  0.07957936    -0.32200
H1605       H  0.62432764  0.86779331  0.13377513     0.12000
H1606       H  0.08737784  0.80601599  0.06953758     0.12600
C1607       C  0.89496037  0.67279088  0.38134416    -0.17000
C1608       C  0.40340765  0.67607474  0.42452141    -0.32200
H1609       H  0.37702091  0.64503115  0.37177857     0.12000
H1610       H  0.91720463  0.70650457  0.43362936     0.12600
C1611       C  0.89077293  0.86347053  0.87751686    -0.03100
C1612       C  0.61207521  0.64882400  0.62712099    -0.03100
N1613       N  0.52455262  0.04767761  0.90967226    -0.06700
N1614       N  0.54882159  0.04973617  0.87998447    -0.58800
N1615       N  0.94701938  0.57853970  0.94938128    -0.06400
N1616       N  0.91484939  0.60168154  0.93952377    -0.60900
N1617       N  0.47796246  0.60161967  0.96233407    -0.06000
N1618       N  0.46681677  0.64138626  0.95995891    -0.58800
N1619       N  0.49354921  0.02488979  0.89738497    -0.05600
N1620       N  0.49621836  0.01100690  0.85913675    -0.61300
C1621       C  0.53063110  0.02742132  0.84849307     0.95500
C1622       C  0.42713537  0.64062090  0.94586017     0.95300
N1623       N  0.91122579  0.48040005  0.02052250    -0.06900
N1624       N  0.89440421  0.49846520  0.55087175    -0.60000
N1625       N  0.94615659  0.94554887  0.93051715    -0.05000
N1626       N  0.92763750  0.92992091  0.89582218    -0.60600
N1627       N  0.94807580  0.91796280  0.96418193    -0.06900
N1628       N  0.92918770  0.88323950  0.95240709    -0.59700
N1629       N  0.90348796  0.50347953  0.98358919    -0.04600
N1630       N  0.88065833  0.53540929  0.98812503    -0.60700
Mn1631     Mn  0.94759820  0.51232915  0.93927048     1.18400
C1632       C  0.87571776  0.53212142  0.03008230     0.97600
C1633       C  0.91648952  0.89112804  0.90908674     0.98200
N1634       N  0.55467665  0.59434548  0.54043512    -0.06900
N1635       N  0.57355797  0.62908063  0.55221826    -0.63200
N1636       N  0.59918914  0.00844870  0.52147143    -0.05700
N1637       N  0.62200030  0.97652509  0.51682894    -0.63900
N1638       N  0.59196428  0.03125928  0.98566940    -0.06400
N1639       N  0.60901692  0.01395764  0.95534529    -0.63500
N1640       N  0.55669096  0.56673435  0.57408356    -0.05300
N1641       N  0.57525209  0.58234558  0.60876758    -0.64200
Mn1642     Mn  0.53772884  0.57105115  0.97396504     1.10700
C1643       C  0.58633401  0.62116920  0.59553134     0.98800
C1644       C  0.62691422  0.97988255  0.47485849     0.98900
N1645       N  0.02454855  0.91050677  0.54223643    -0.06400
N1646       N  0.03550265  0.87069362  0.54447142    -0.61800
N1647       N  0.00908833  0.48697936  0.60804978    -0.05800
N1648       N  0.00635042  0.50080839  0.64630572    -0.58500
N1649       N  0.97826779  0.46391299  0.59585205    -0.07100
N1650       N  0.95407357  0.46159867  0.62559958    -0.61400
N1651       N  0.05542742  0.93318586  0.55556101    -0.06100
N1652       N  0.58842847  0.91059906  0.56599442    -0.58600
Mn1653     Mn  0.96493003  0.94129309  0.53040879     1.20200
Mn1654     Mn  0.55517081  0.99953789  0.56597440     1.10100
Cl1655     Cl  0.00146727  0.50590638  0.00264477    -0.86500
C1656       C  0.07518126  0.87123683  0.55858074     0.95800
C1657       C  0.97208050  0.48409596  0.65702648     0.95600
N1658       N  0.81064630  0.68353299  0.04851393    -0.06700
N1659       N  0.82335820  0.64482163  0.05514381    -0.58800
N1660       N  0.80684060  0.77400180  0.58756448    -0.06400
N1661       N  0.82000406  0.80000251  0.61621439    -0.60900
N1662       N  0.78147188  0.74777416  0.60368304    -0.06000
N1663       N  0.77834505  0.75482246  0.64434898    -0.58800
N1664       N  0.83711891  0.70802889  0.03182582    -0.05600
N1665       N  0.86874598  0.68514241  0.02698243    -0.61300
C1666       C  0.85930378  0.64579273  0.04209811     0.95500
C1667       C  0.80219992  0.78803078  0.65122086     0.95300
N1668       N  0.77812054  0.85756181  0.48477886    -0.06900
N1669       N  0.76688114  0.89590323  0.49086091    -0.59400
N1670       N  0.84183463  0.79062859  0.95389671    -0.05000
N1671       N  0.87527749  0.80864843  0.94264076    -0.60600
N1672       N  0.81228492  0.80049486  0.92302173    -0.06900
N1673       N  0.82588230  0.82324793  0.89073392    -0.59700
N1674       N  0.80704469  0.84456234  0.51487523    -0.04600
N1675       N  0.81665592  0.87381158  0.54165735    -0.60700
Mn1676     Mn  0.82460692  0.77831911  0.52186893     1.18400
C1677       C  0.79165523  0.90585768  0.52615174     0.97600
C1678       C  0.86543521  0.82881860  0.90217915     0.98200
N1679       N  0.69079145  0.71158460  0.58175504    -0.06900
N1680       N  0.67715487  0.68872589  0.61394428    -0.63200
N1681       N  0.69571117  0.66785250  0.98993128    -0.05700
N1682       N  0.68572611  0.63866564  0.96317644    -0.63900
N1683       N  0.72481419  0.65470368  0.01973446    -0.06400
N1684       N  0.73577890  0.61631762  0.01351565    -0.63500
N1685       N  0.66125689  0.72165928  0.55093376    -0.05300
N1686       N  0.62776223  0.70370782  0.56212868    -0.64200
Mn1687     Mn  0.75218769  0.70038498  0.56423148     1.10700
C1688       C  0.63757873  0.68333138  0.60249123     0.98800
C1689       C  0.71067692  0.60649947  0.97841965     0.98900
N1690       N  0.72139296  0.76448151  0.90127890    -0.06400
N1691       N  0.72437587  0.75722048  0.86063247    -0.61800
N1692       N  0.66608513  0.80415072  0.47284227    -0.05800
N1693       N  0.63447344  0.82700051  0.47774067    -0.58500
N1694       N  0.69245241  0.82860941  0.45590903    -0.07100
N1695       N  0.67966986  0.86731012  0.44919546    -0.61400
N1696       N  0.69594682  0.73846420  0.91756089    -0.06100
N1697       N  0.68260548  0.71238684  0.88909385    -0.58600
Mn1698     Mn  0.75092223  0.81184151  0.94059585     1.20200
Mn1699     Mn  0.67841471  0.73419993  0.98324224     1.10100
Cl1700     Cl  0.75144061  0.75654601  0.50206758    -0.86500
C1701       C  0.70036828  0.72407957  0.85400515     0.95800
C1702       C  0.64378502  0.86631259  0.46244488     0.95600
N1703       N  0.93534399  0.80208009  0.68176636    -0.06700
N1704       N  0.89652058  0.79992054  0.67101254    -0.58800
N1705       N  0.03218498  0.83063177  0.69165373    -0.06400
N1706       N  0.56649881  0.84971855  0.68162009    -0.60900
N1707       N  0.02390772  0.80065117  0.66560944    -0.06000
N1708       N  0.55206142  0.79850012  0.63804054    -0.58800
N1709       N  0.94300036  0.83225119  0.70784272    -0.05600
N1710       N  0.91004002  0.85098367  0.71490105    -0.61300
C1711       C  0.88133587  0.83045697  0.69188786     0.95500
C1712       C  0.57800264  0.82818889  0.64945473     0.95300
N1713       N  0.56445689  0.80652143  0.82044795    -0.06900
N1714       N  0.60322877  0.80039791  0.82911595    -0.59400
N1715       N  0.96438980  0.83599452  0.80660806    -0.05000
N1716       N  0.93322443  0.85905451  0.81328345    -0.60600
N1717       N  0.97285817  0.80727178  0.83893331    -0.06900
N1718       N  0.94763969  0.81073362  0.86815139    -0.59700
N1719       N  0.55617963  0.83528984  0.78820287    -0.04600
N1720       N  0.58918097  0.84886474  0.77417791    -0.60700
Mn1721     Mn  0.99886285  0.83578052  0.74862032     1.18400
C1722       C  0.61804881  0.82678571  0.79980666     0.97600
C1723       C  0.92217906  0.84294127  0.85181508     0.98200
N1724       N  0.53022293  0.70549022  0.66565740    -0.06900
N1725       N  0.55538117  0.70188172  0.63639255    -0.63200
N1726       N  0.94619947  0.67727002  0.71740786    -0.05700
N1727       N  0.91325713  0.66398164  0.73180122    -0.63900
N1728       N  0.93783166  0.70579041  0.68493781    -0.06400
N1729       N  0.89905179  0.71195869  0.67643229    -0.63500
N1730       N  0.53864160  0.67674675  0.69796768    -0.05300
N1731       N  0.56969063  0.65354626  0.69127513    -0.64200
Mn1732     Mn  0.98095341  0.75355172  0.67281667     1.10700
C1733       C  0.58073276  0.66956158  0.65272781     0.98800
C1734       C  0.88433055  0.68593627  0.70612685     0.98900
N1735       N  0.47842576  0.71143082  0.83864936    -0.06400
N1736       N  0.95143250  0.71434474  0.86756691    -0.61800
N1737       N  0.55958309  0.68015494  0.79686241    -0.05800
N1738       N  0.59255671  0.66123670  0.79018308    -0.58500
N1739       N  0.56708697  0.71016446  0.82316444    -0.07100
N1740       N  0.60585800  0.71202705  0.83448423    -0.61400
N1741       N  0.47042482  0.68147668  0.81251510    -0.06100
N1742       N  0.93667229  0.66301195  0.82421037    -0.58600
Mn1743     Mn  0.52134090  0.75863742  0.83199298     1.20200
Mn1744     Mn  0.50400166  0.67670521  0.75572516     1.10100
Cl1745     Cl  0.00110854  0.75601508  0.75347489    -0.86500
C1746       C  0.92544463  0.68460125  0.85647342     0.95800
C1747       C  0.62113196  0.68145798  0.81369724     0.95600
N1748       N  0.80521091  0.92738866  0.82113765    -0.06700
N1749       N  0.82006900  0.89118152  0.84011769    -0.58800
N1750       N  0.78630981  0.52026845  0.85689591    -0.06400
N1751       N  0.79031186  0.54553527  0.88841848    -0.60900
N1752       N  0.75692484  0.49438704  0.86129793    -0.06000
N1753       N  0.73964025  0.50192180  0.89569524    -0.58800
N1754       N  0.83408367  0.95369425  0.81587443    -0.05600
N1755       N  0.86894760  0.93511771  0.83105680    -0.61300
C1756       C  0.86043119  0.89524893  0.84649319     0.95500
C1757       C  0.76125011  0.53368450  0.91247948     0.95300
N1758       N  0.77655920  0.60201612  0.74577481    -0.06900
N1759       N  0.77971051  0.64248803  0.73773157    -0.59400
N1760       N  0.84385743  0.02611002  0.73900919    -0.05000
N1761       N  0.88142261  0.01911751  0.73473920    -0.60600
N1762       N  0.82408385  0.04128946  0.70187805    -0.06900
N1763       N  0.84794840  0.04490508  0.67171369    -0.59700
N1764       N  0.79918297  0.58900522  0.78199791    -0.04600
N1765       N  0.81866540  0.62098708  0.79803300    -0.60700
Mn1766     Mn  0.81692725  0.52223447  0.79887046     1.18400
C1767       C  0.80695421  0.65406797  0.76962257     0.97600
C1768       C  0.88331904  0.03114989  0.69263592     0.98200
N1769       N  0.67880161  0.47080721  0.80314760    -0.06900
N1770       N  0.65509105  0.46755313  0.83346635    -0.63200
N1771       N  0.70337587  0.92298193  0.72299773    -0.05700
N1772       N  0.68368872  0.89100109  0.70721999    -0.63900
N1773       N  0.72602878  0.91004360  0.75923195    -0.06400
N1774       N  0.72273178  0.86961889  0.76748477    -0.63500
N1775       N  0.65900197  0.48605366  0.76606403    -0.05300
N1776       N  0.62155742  0.49341516  0.77049140    -0.64200
Mn1777     Mn  0.74146303  0.95009688  0.81145674     1.10700
C1778       C  0.61977120  0.48155211  0.81264129     0.98800
C1779       C  0.69533086  0.85800444  0.73578010     0.98900
N1780       N  0.74576838  0.01758091  0.64354288    -0.06400
N1781       N  0.76278211  0.01029935  0.60888845    -0.61800
N1782       N  0.66849367  0.55851974  0.68909221    -0.05800
N1783       N  0.63367145  0.57713530  0.67375831    -0.58500
N1784       N  0.69739357  0.58480797  0.68391258    -0.07100
N1785       N  0.68261641  0.62102400  0.66488058    -0.61400
N1786       N  0.71630705  0.99177858  0.64789914    -0.06100
N1787       N  0.71198189  0.96684542  0.61607414    -0.58600
Mn1788     Mn  0.76106806  0.56203079  0.69352246     1.20200
Mn1789     Mn  0.68569263  0.98975988  0.70602549     1.10100
Cl1790     Cl  0.75135011  0.50603207  0.75252973    -0.86500
C1791       C  0.74093677  0.97878711  0.59188706     0.95800
C1792       C  0.64226418  0.61700332  0.65833475     0.95600
C1793       C  0.84379158  0.68878059  0.71660184    -0.17000
C1794       C  0.83703236  0.68413598  0.75836605    -0.32200
H1795       H  0.82021325  0.68516249  0.69023538     0.12000
H1796       H  0.86132446  0.68883467  0.78363871     0.12600
C1797       C  0.65854415  0.82388181  0.78923582    -0.17000
C1798       C  0.66515685  0.82820343  0.74740184    -0.32200
H1799       H  0.68217740  0.82767032  0.81547724     0.12000
H1800       H  0.64080375  0.82336622  0.72227972     0.12600
C1801       C  0.78603713  0.94190524  0.55154093    -0.17000
C1802       C  0.74937170  0.95609866  0.55472005    -0.32200
H1803       H  0.81089035  0.95089096  0.57437313     0.12000
H1804       H  0.72405103  0.94329834  0.53530155     0.12600
C1805       C  0.71610416  0.57056741  0.95282569    -0.17000
C1806       C  0.75275915  0.55641738  0.94955551    -0.32200
H1807       H  0.69119392  0.56162476  0.93005116     0.12000
H1808       H  0.77809504  0.56921234  0.96894453     0.12600
C1809       C  0.66382560  0.67437031  0.81271308    -0.17000
C1810       C  0.68725642  0.70794032  0.81204282    -0.32200
H1811       H  0.67489156  0.64722003  0.83383936     0.12000
H1812       H  0.68042380  0.73225443  0.78590411     0.12600
C1813       C  0.81517589  0.80386284  0.69339223    -0.17000
C1814       C  0.83865158  0.83741332  0.69320244    -0.32200
H1815       H  0.82189182  0.77936172  0.71934239     0.12000
H1816       H  0.82753248  0.86485000  0.67258576     0.12600
C1817       C  0.86544744  0.56931585  0.05087044    -0.17000
C1818       C  0.88102160  0.60676058  0.03893670    -0.32200
H1819       H  0.84091241  0.56710066  0.07005309     0.12000
H1820       H  0.90677724  0.60804150  0.02189040     0.12600
C1821       C  0.62204696  0.90525692  0.46588050    -0.17000
C1822       C  0.63740292  0.94280450  0.45398773    -0.32200
H1823       H  0.59641431  0.90377593  0.48318812     0.12000
H1824       H  0.66183729  0.94522098  0.43465014     0.12600
C1825       C  0.55347299  0.01008308  0.81762078    -0.17000
C1826       C  0.58547733  0.48716862  0.83516802    -0.32200
H1827       H  0.54961119  0.52178191  0.78369160     0.12000
H1828       H  0.58895573  0.47711012  0.86958999     0.12600
C1829       C  0.91778292  0.02599806  0.67016752    -0.17000
C1830       C  0.94892130  0.50165753  0.68744970    -0.32200
H1831       H  0.91448513  0.03678366  0.63592503     0.12000
H1832       H  0.95309749  0.49002710  0.72137061     0.12600
C1833       C  0.60957101  0.83994650  0.62314618    -0.17000
C1834       C  0.09755760  0.83533873  0.58105303    -0.32200
H1835       H  0.62598197  0.86735110  0.63318853     0.12000
H1836       H  0.08571282  0.80556154  0.57137431     0.12600
C1837       C  0.89405245  0.67289640  0.88304186    -0.17000
C1838       C  0.40469657  0.67627107  0.92296893    -0.32200
H1839       H  0.37867393  0.64414041  0.87076546     0.12000
H1840       H  0.91605749  0.70597590  0.93578320     0.12600
loop_ 
_geom_bond_atom_site_label_1 
_geom_bond_atom_site_label_2 
_geom_bond_distance 
_geom_bond_site_symmetry_2 
_ccdc_geom_bond_type 
C1           C23   1.563       .  S
C1           C68   1.614       .  S
C1          C113   1.585       .  S
C1          C146   1.621       .  S
C2           C33   1.562       .  S
C2           C78   1.614       .  S
C2          C123   1.585       .  S
C2          C182   1.621       .  S
N3            N4   1.313       .  A
N3            N9   1.316   1_455  A
N3         Mn492   2.207       .  S
N4           C11   1.349       .  A
N5            N6   1.309       .  A
N5          N927   1.319       .  A
N5          Mn21   2.174       .  S
N6          C932   1.339       .  A
N7            N8   1.325       .  A
N7          N925   1.319       .  A
N7          Mn32   2.226   1_655  S
N8           C12   1.363       .  A
N9           N10   1.320       .  A
N9        Mn1401   2.168       .  S
N10          C11   1.350   1_655  A
C11         C215   1.453       .  S
C12         N926   1.338       .  A
C12         C228   1.460       .  S
N13          N19   1.317   1_565  A
N13         N244   1.327       .  A
N13        Mn733   2.209       .  S
N14         N243   1.327       .  A
N14         C252   1.354   1_565  A
N15          N16   1.316       .  A
N15          N17   1.314       .  A
N15        Mn481   2.190       .  S
N16          C23   1.351       .  A
N17          N18   1.340       .  A
N17        Mn273   2.276       .  S
N18          C23   1.370       .  A
N19          N20   1.312       .  A
N19         Mn21   2.169       .  S
N20          C22   1.337       .  A
Mn21       N1389   2.170       .  S
Mn21        N475   2.190   1_545  S
Mn21        Cl45   2.511       .  S
C22         N244   1.353   1_545  A
C22         C207   1.467       .  S
N24          N25   1.340       .  A
N24          N30   1.314       .  A
N24        Mn262   2.274   1_554  S
N25          C33   1.369       .  A
N26          N27   1.312       .  A
N26         N258   1.317   1_554  A
N26         Mn44   2.168       .  S
N27          C34   1.337   1_554  A
N28          N29   1.327       .  A
N28         N256   1.316       .  A
N28        Mn492   2.206       .  S
N29         C264   1.353       .  A
N30          N31   1.316       .  A
N30        Mn504   2.190   1_545  S
N31          C33   1.351       .  A
Mn32        N463   2.199       .  S
Mn32        N254   2.277       .  S
Mn32        N488   2.210       .  S
Mn32       Cl965   2.575       .  S
C34         N259   1.352       .  A
C34         C212   1.465       .  S
N35          N36   1.325       .  A
N35          N41   1.319       .  A
N35         Mn43   2.224       .  S
N36          C46   1.362       .  A
N37          N38   1.320   1_565  A
N37          N39   1.316       .  A
N37       Mn1424   2.171       .  S
N38          C47   1.351   1_545  A
N39          N40   1.313       .  A
N39        Mn503   2.200       .  S
N40          C47   1.348       .  A
N41         N962   1.309       .  A
N41        Mn964   2.173       .  S
N42         N961   1.309       .  A
N42         C966   1.338       .  A
Mn43        N703   2.206       .  S
Mn43        N247   2.281   1_554  S
Mn43        N499   2.207       .  S
Mn43       Cl735   2.574       .  S
Mn44        N490   2.190       .  S
Mn44       N1417   2.168       .  S
Mn44        N961   2.171       .  S
Mn44      Cl1655   2.512       .  S
Cl45       Mn952   2.575       .  S
Cl45       Mn733   2.575   1_545  S
Cl45      Mn1654   2.510   1_545  S
C46         N962   1.339       .  A
C46         C224   1.460       .  S
C47         C220   1.452   1_565  S
N48          N49   1.308       .  A
N48          N54   1.323       .  A
N48        Mn307   2.168       .  S
N49          C56   1.333       .  A
N50          N52   1.322       .  A
N50          N51   1.309       .  A
N50         Mn66   2.201       .  S
N51          C57   1.344       .  A
N52          N53   1.324       .  A
N52         Mn77   2.193       .  S
N53          C57   1.353       .  A
N54          N55   1.331       .  A
N54        Mn296   2.257       .  S
N55          C56   1.366       .  A
C56         C208   1.470       .  S
C57         C203   1.464       .  S
N58          N64   1.312   1_556  A
N58          N59   1.324       .  A
N58        Mn318   2.217       .  S
N59          C67   1.358   1_556  A
N60          N61   1.347       .  A
N60          N62   1.319       .  A
N60        Mn296   2.292       .  S
N61          C68   1.374       .  A
N62          N63   1.328       .  A
N62         Mn88   2.255       .  S
N63          C68   1.360       .  A
N64          N65   1.320       .  A
N64         Mn66   2.195       .  S
N65          C67   1.352       .  A
Mn66        N284   2.257       .  S
Mn66        N290   2.295   1_554  S
Mn66        Cl90   2.590       .  S
C67         C191   1.479       .  S
N69          N70   1.328       .  A
N69          N75   1.319       .  A
N69         Mn77   2.255       .  S
N70          C78   1.360       .  A
N71          N73   1.312       .  A
N71          N72   1.320       .  A
N71         Mn89   2.195       .  S
N72          C79   1.352       .  A
N73          N74   1.323       .  A
N73        Mn307   2.214       .  S
N74          C79   1.357       .  A
N75          N76   1.347       .  A
N75        Mn319   2.290   1_554  S
N76          C78   1.374       .  A
Mn77        N278   2.165       .  S
Mn77        N303   2.213       .  S
Mn77        Cl90   2.540       .  S
C79         C195   1.478       .  S
N80          N81   1.324       .  A
N80          N86   1.322       .  A
N80         Mn88   2.193       .  S
N81          C91   1.354       .  A
N82          N83   1.330       .  A
N82          N84   1.324       .  A
N82        Mn319   2.254       .  S
N83          C92   1.366       .  A
N84          N85   1.307       .  A
N84        Mn318   2.169       .  S
N85          C92   1.334       .  A
N86          N87   1.309       .  A
N86         Mn89   2.202       .  S
N87          C91   1.344       .  A
Mn88        N288   2.214       .  S
Mn88        N314   2.164       .  S
Mn88       Cl320   2.540       .  S
Mn89        N305   2.296       .  S
Mn89        N312   2.257       .  S
Mn89       Cl320   2.591       .  S
Cl90       Mn318   2.540   1_554  S
Cl90       Mn319   2.590   1_554  S
C91         C200   1.464       .  S
C92         C211   1.468       .  S
N93          N94   1.320       .  A
N93          N99   1.319       .  A
N93        Mn122   2.252       .  S
N94         C101   1.356       .  A
N95          N97   1.316       .  A
N95        N1016   1.326       .  A
N95        Mn111   2.241       .  S
N96        N1015   1.327       .  A
N96         C102   1.359       .  A
N97        N1018   1.307       .  A
N97        Mn122   2.120       .  S
N98        N1017   1.307       .  A
N98         C102   1.337       .  A
N99         N100   1.320       .  A
N99        Mn111   2.151       .  S
N100        C101   1.340       .  A
C101        C204   1.470       .  S
C102        C223   1.462       .  S
N103        N109   1.313       .  A
N103        N104   1.320       .  A
N103       Mn133   2.165       .  S
N104        C112   1.343       .  A
N105        N106   1.337       .  A
N105        N107   1.315       .  A
N105       Mn111   2.275       .  S
N106        C113   1.367       .  A
N107        N108   1.338       .  A
N107      Mn1053   2.295       .  S
N108        C113   1.371       .  A
N109        N110   1.315       .  A
N109      Mn1031   2.177   1_455  S
N110        C112   1.346       .  A
Mn111      N1029   2.176       .  S
Mn111      Cl135   2.554       .  S
C112        C187   1.457       .  S
N114        N115   1.338       .  A
N114        N120   1.315       .  A
N114      Mn1042   2.297   1_455  S
N115        C123   1.371       .  A
N116        N118   1.314       .  A
N116        N117   1.316       .  A
N116      Mn1054   2.181       .  S
N117        C124   1.346       .  A
N118        N119   1.320       .  A
N118       Mn122   2.164       .  S
N119        C124   1.342       .  A
N120        N121   1.337       .  A
N120       Mn134   2.275       .  S
N121        C123   1.367       .  A
Mn122      N1034   2.295       .  S
Mn122      Cl135   2.531       .  S
C124        C183   1.458       .  S
N125        N131   1.316       .  A
N125       N1046   1.306       .  A
N125       Mn133   2.119   1_655  S
N126       N1045   1.307       .  A
N126        C136   1.337       .  A
N127        N128   1.320       .  A
N127        N129   1.319       .  A
N127       Mn134   2.151       .  S
N128        C137   1.340       .  A
N129        N130   1.320       .  A
N129       Mn133   2.253       .  S
N130        C137   1.356       .  A
N131       N1052   1.327       .  A
N131       Mn134   2.240   1_655  S
N132       N1051   1.327       .  A
N132        C136   1.359       .  A
Mn133      N1027   2.299   1_455  S
Mn133     Cl1055   2.530       .  S
Mn134      N1036   2.177   1_455  S
Mn134     Cl1055   2.556       .  S
Cl135     Mn1053   2.530       .  S
Cl135     Mn1054   2.554       .  S
C136        C227   1.462       .  S
C137        C199   1.470       .  S
N138        N139   1.330       .  A
N138        N144   1.312       .  A
N138       Mn167   2.256       .  S
N139        C146   1.366       .  A
N140        N142   1.312   1_545  A
N140        N141   1.318       .  A
N140       Mn156   2.196       .  S
N141        C147   1.351       .  A
N142        N143   1.325   1_565  A
N142       Mn627   2.205       .  S
N143        C147   1.357       .  A
N144        N145   1.338       .  A
N144       Mn616   2.284       .  S
N145        C146   1.376       .  A
C147        C196   1.474       .  S
N148        N154   1.321       .  A
N148        N149   1.311       .  A
N148       Mn178   2.168       .  S
N149        C157   1.345       .  A
N150        N151   1.318       .  A
N150        N152   1.320       .  A
N150       Mn616   2.174       .  S
N151        C158   1.349       .  A
N152        N153   1.316       .  A
N152       Mn638   2.213       .  S
N153        C158   1.347       .  A
N154        N155   1.319       .  A
N154       Mn156   2.231       .  S
N155        C157   1.354       .  A
Mn156       N604   2.285   1_545  S
Mn156       N610   2.172       .  S
Mn156      Cl180   2.571       .  S
C157        C184   1.462       .  S
C158        C219   1.453       .  S
N159        N160   1.315       .  A
N159        N165   1.320       .  A
N159       Mn627   2.209       .  S
N160        C168   1.347       .  A
N161        N163   1.321       .  A
N161        N162   1.320       .  A
N161       Mn179   2.231       .  S
N162        C169   1.354       .  A
N163        N164   1.311       .  A
N163       Mn167   2.168       .  S
N164        C169   1.344       .  A
N165        N166   1.318       .  A
N165       Mn639   2.172       .  S
N166        C168   1.349       .  A
Mn167       N602   2.207       .  S
Mn167       N619   2.214       .  S
Mn167      Cl640   2.521       .  S
C168        C216   1.451       .  S
C169        C188   1.461       .  S
N170        N171   1.325       .  A
N170        N176   1.312       .  A
N170       Mn638   2.207       .  S
N171        C181   1.357       .  A
N172        N173   1.338       .  A
N172        N174   1.311       .  A
N172       Mn639   2.285   1_545  S
N173        C182   1.376       .  A
N174        N175   1.330       .  A
N174       Mn178   2.254       .  S
N175        C182   1.366       .  A
N176        N177   1.318       .  A
N176       Mn179   2.197       .  S
N177        C181   1.351       .  A
Mn178       N612   2.210       .  S
Mn178       N630   2.205       .  S
Mn178      Cl180   2.523       .  S
Mn179       N625   2.174       .  S
Mn179       N632   2.284       .  S
Mn179      Cl640   2.574       .  S
Cl180      Mn627   2.523   1_545  S
Cl180      Mn639   2.571   1_545  S
C181        C192   1.475       .  S
C183        C184   1.348       .  D
C183        H185   1.086       .  S
C184        H186   1.085       .  S
C187        C188   1.349       .  D
C187        H189   1.085       .  S
C188        H190   1.085       .  S
C191        C192   1.342       .  D
C191        H193   1.087       .  S
C192        H194   1.087       .  S
C195        C196   1.342       .  D
C195        H197   1.087       .  S
C196        H198   1.087       .  S
C199        C200   1.340       .  D
C199        H201   1.087       .  S
C200        H202   1.087       .  S
C203        C204   1.340       .  D
C203        H205   1.087       .  S
C204        H206   1.087       .  S
C207        C208   1.358       .  D
C207        H209   1.084       .  S
C208        H210   1.077       .  S
C211        C212   1.357       .  D
C211        H213   1.079       .  S
C212        H214   1.085       .  S
C215        C676   1.337       .  D
C215        H677   1.086       .  S
C216        C675   1.336   1_565  D
C216        H218   1.089       .  S
H217        C675   1.086       .  S
C219        C680   1.337       .  D
C219        H221   1.089       .  S
C220        C679   1.336       .  D
C220        H222   1.086   1_545  S
C223       C1144   1.345       .  D
C223        H225   1.088       .  S
C224       C1143   1.346       .  D
C224        H226   1.088       .  S
C227       C1148   1.345       .  D
C227       H1149   1.087       .  S
C228       C1147   1.347       .  D
C228       H1150   1.087       .  S
H229       C1147   1.087       .  S
H230       C1148   1.087       .  S
C231        C253   1.566       .  S
C231        C298   1.618       .  S
C231        C343   1.591       .  S
C231        C376   1.620       .  S
C232        C263   1.565       .  S
C232        C308   1.618       .  S
C232        C353   1.591       .  S
C232        C412   1.620       .  S
N233        N234   1.313       .  A
N233        N239   1.316   1_455  A
N233       Mn722   2.203       .  S
N234        C241   1.348       .  A
N235       N1157   1.319       .  A
N235        N236   1.309       .  A
N235       Mn251   2.172       .  S
N236       C1162   1.338       .  A
N237       N1155   1.319       .  A
N237        N238   1.325       .  A
N237       Mn262   2.227   1_655  S
N238        C242   1.363       .  A
N239        N240   1.321       .  A
N239      Mn1631   2.168       .  S
N240        C241   1.350   1_655  A
C241        C445   1.452       .  S
C242       N1156   1.338       .  A
C242        C458   1.460       .  S
N243        N249   1.317   1_564  A
N243       Mn503   2.210       .  S
N245        N246   1.317       .  A
N245        N247   1.314       .  A
N245       Mn711   2.193       .  S
N246        C253   1.352       .  A
N247        N248   1.341       .  A
N248        C253   1.370       .  A
N249        N250   1.312       .  A
N249       Mn251   2.169       .  S
N250        C252   1.337   1_556  A
Mn251      N1619   2.169       .  S
Mn251       N705   2.191   1_545  S
Mn251      Cl275   2.512   1_556  S
C252        C437   1.468       .  S
N254        N255   1.340       .  A
N254        N260   1.314       .  A
N255        C263   1.370       .  A
N256        N257   1.312       .  A
N256       Mn274   2.169       .  S
N257        C264   1.338       .  A
N258        N259   1.326       .  A
N258       Mn722   2.205       .  S
N260        N261   1.317       .  A
N260       Mn734   2.191   1_545  S
N261        C263   1.351       .  A
Mn262       N693   2.199       .  S
Mn262       N718   2.210       .  S
Mn262     Cl1195   2.574   1_556  S
C264        C442   1.466       .  S
N265        N266   1.325       .  A
N265        N271   1.319       .  A
N265       Mn273   2.222       .  S
N266        C276   1.362       .  A
N267        N268   1.321   1_565  A
N267        N269   1.316       .  A
N267      Mn1654   2.171       .  S
N268        C277   1.351   1_545  A
N269        N270   1.312       .  A
N269       Mn733   2.199       .  S
N270        C277   1.348       .  A
N271       N1192   1.309       .  A
N271      Mn1194   2.174       .  S
N272       N1191   1.309       .  A
N272       C1196   1.338       .  A
Mn273       N473   2.205       .  S
Mn273       N729   2.204       .  S
Mn273      Cl505   2.574       .  S
Mn274       N720   2.193       .  S
Mn274      N1647   2.169       .  S
Mn274      N1191   2.172       .  S
Mn274     Cl1425   2.512       .  S
Cl275     Mn1182   2.574   1_554  S
Cl275      Mn503   2.575   1_545  S
Cl275     Mn1424   2.511   1_545  S
C276       N1192   1.339       .  A
C276        C454   1.460       .  S
C277        C450   1.452   1_565  S
N278        N279   1.308       .  A
N278        N284   1.323       .  A
N279        C286   1.333       .  A
N280        N282   1.322       .  A
N280        N281   1.308       .  A
N280       Mn296   2.199       .  S
N281        C287   1.344       .  A
N282        N283   1.324       .  A
N282       Mn307   2.194       .  S
N283        C287   1.354       .  A
N284        N285   1.330       .  A
N285        C286   1.366       .  A
C286        C438   1.470       .  S
C287        C433   1.463       .  S
N288        N294   1.312       .  A
N288        N289   1.323       .  A
N289        C297   1.357       .  A
N290        N291   1.348       .  A
N290        N292   1.319       .  A
N291        C298   1.375       .  A
N292        N293   1.329       .  A
N292       Mn318   2.262       .  S
N293        C298   1.361       .  A
N294        N295   1.321       .  A
N294       Mn296   2.196       .  S
N295        C297   1.352       .  A
Mn296      Cl320   2.591       .  S
C297        C421   1.479       .  S
N299        N300   1.329       .  A
N299        N305   1.319       .  A
N299       Mn307   2.259       .  S
N300        C308   1.361       .  A
N301        N303   1.312   1_556  A
N301        N302   1.320       .  A
N301       Mn319   2.194       .  S
N302        C309   1.352       .  A
N303        N304   1.323       .  A
N304        C309   1.357   1_554  A
N305        N306   1.348       .  A
N306        C308   1.375       .  A
Mn307      Cl320   2.540       .  S
C309        C425   1.478       .  S
N310        N311   1.325       .  A
N310        N316   1.322       .  A
N310       Mn318   2.196       .  S
N311        C321   1.355       .  A
N312        N313   1.330       .  A
N312        N314   1.323       .  A
N313        C322   1.366       .  A
N314        N315   1.307       .  A
N315        C322   1.333       .  A
N316        N317   1.307       .  A
N316       Mn319   2.195       .  S
N317        C321   1.343       .  A
C321        C430   1.463       .  S
C322        C441   1.469       .  S
N323        N324   1.321       .  A
N323        N329   1.319       .  A
N323       Mn352   2.254       .  S
N324        C331   1.356       .  A
N325        N327   1.316       .  A
N325       N1246   1.327       .  A
N325       Mn341   2.244       .  S
N326       N1245   1.327       .  A
N326        C332   1.359       .  A
N327       N1248   1.307       .  A
N327       Mn352   2.120       .  S
N328       N1247   1.306       .  A
N328        C332   1.336       .  A
N329        N330   1.320       .  A
N329       Mn341   2.152       .  S
N330        C331   1.340       .  A
C331        C434   1.472       .  S
C332        C453   1.461       .  S
N333        N339   1.313       .  A
N333        N334   1.320       .  A
N333       Mn363   2.166       .  S
N334        C342   1.343       .  A
N335        N336   1.338       .  A
N335        N337   1.315       .  A
N335       Mn341   2.285       .  S
N336        C343   1.370       .  A
N337        N338   1.339       .  A
N337      Mn1283   2.296       .  S
N338        C343   1.371       .  A
N339        N340   1.314       .  A
N339      Mn1261   2.175   1_455  S
N340        C342   1.345       .  A
Mn341      N1259   2.179       .  S
Mn341      Cl365   2.554       .  S
C342        C417   1.457       .  S
N344        N345   1.339       .  A
N344        N350   1.315       .  A
N344      Mn1272   2.298   1_455  S
N345        C353   1.371       .  A
N346        N348   1.313       .  A
N346        N347   1.315       .  A
N346      Mn1284   2.178       .  S
N347        C354   1.346       .  A
N348        N349   1.319       .  A
N348       Mn352   2.162       .  S
N349        C354   1.342       .  A
N350        N351   1.338       .  A
N350       Mn364   2.284       .  S
N351        C353   1.369       .  A
Mn352      N1264   2.295       .  S
Mn352      Cl365   2.531       .  S
C354        C413   1.456       .  S
N355       N1276   1.307       .  A
N355        N361   1.317       .  A
N355       Mn363   2.121   1_655  S
N356       N1275   1.306       .  A
N356        C366   1.336       .  A
N357        N358   1.319       .  A
N357        N359   1.319       .  A
N357       Mn364   2.151       .  S
N358        C367   1.340       .  A
N359        N360   1.321       .  A
N359       Mn363   2.254       .  S
N360        C367   1.356       .  A
N361       N1282   1.327       .  A
N361       Mn364   2.243   1_655  S
N362       N1281   1.327       .  A
N362        C366   1.359       .  A
Mn363      N1257   2.297   1_455  S
Mn363     Cl1285   2.529       .  S
Mn364      N1266   2.178   1_455  S
Mn364     Cl1285   2.556       .  S
Cl365     Mn1283   2.531       .  S
Cl365     Mn1284   2.554       .  S
C366        C457   1.462       .  S
C367        C429   1.471       .  S
N368        N369   1.330       .  A
N368        N374   1.311       .  A
N368       Mn397   2.256       .  S
N369        C376   1.366       .  A
N370        N372   1.312   1_545  A
N370        N371   1.318       .  A
N370       Mn386   2.196       .  S
N371        C377   1.351       .  A
N372        N373   1.325   1_565  A
N372       Mn857   2.205       .  S
N373        C377   1.356       .  A
N374        N375   1.338       .  A
N374       Mn846   2.282       .  S
N375        C376   1.376       .  A
C377        C426   1.474       .  S
N378        N384   1.321       .  A
N378        N379   1.311       .  A
N378       Mn408   2.170       .  S
N379        C387   1.345       .  A
N380        N381   1.318       .  A
N380        N382   1.320       .  A
N380       Mn846   2.172       .  S
N381        C388   1.349       .  A
N382        N383   1.316       .  A
N382       Mn868   2.212       .  S
N383        C388   1.347       .  A
N384        N385   1.319       .  A
N384       Mn386   2.229       .  S
N385        C387   1.353       .  A
Mn386       N834   2.283   1_545  S
Mn386       N840   2.172       .  S
Mn386      Cl410   2.573       .  S
C387        C414   1.461       .  S
C388        C449   1.452       .  S
N389        N390   1.316       .  A
N389        N395   1.320       .  A
N389       Mn857   2.211       .  S
N390        C398   1.347       .  A
N391        N393   1.322       .  A
N391        N392   1.320       .  A
N391       Mn409   2.229       .  S
N392        C399   1.354       .  A
N393        N394   1.311       .  A
N393       Mn397   2.169       .  S
N394        C399   1.344       .  A
N395        N396   1.318       .  A
N395       Mn869   2.171       .  S
N396        C398   1.349       .  A
Mn397       N832   2.207       .  S
Mn397       N849   2.211       .  S
Mn397      Cl870   2.520       .  S
C398        C446   1.451       .  S
C399        C418   1.461       .  S
N400        N401   1.325       .  A
N400        N406   1.312       .  A
N400       Mn868   2.207       .  S
N401        C411   1.357       .  A
N402        N403   1.338       .  A
N402        N404   1.311       .  A
N402       Mn869   2.284   1_545  S
N403        C412   1.376       .  A
N404        N405   1.329       .  A
N404       Mn408   2.253       .  S
N405        C412   1.365       .  A
N406        N407   1.319       .  A
N406       Mn409   2.199       .  S
N407        C411   1.351       .  A
Mn408       N842   2.210       .  S
Mn408       N860   2.206       .  S
Mn408      Cl410   2.520       .  S
Mn409       N855   2.172       .  S
Mn409       N862   2.282       .  S
Mn409      Cl870   2.574       .  S
Cl410      Mn857   2.520   1_545  S
Cl410      Mn869   2.573   1_545  S
C411        C422   1.476       .  S
C413        C414   1.348       .  D
C413        H415   1.085       .  S
C414        H416   1.086       .  S
C417        C418   1.349       .  D
C417        H419   1.085       .  S
C418        H420   1.085       .  S
C421        C422   1.343       .  D
C421        H423   1.086       .  S
C422        H424   1.086       .  S
C425        C426   1.342       .  D
C425        H427   1.086       .  S
C426        H428   1.086       .  S
C429        C430   1.341       .  D
C429        H431   1.087       .  S
C430        H432   1.086       .  S
C433        C434   1.340       .  D
C433        H435   1.087       .  S
C434        H436   1.088       .  S
C437        C438   1.358       .  D
C437        H439   1.084       .  S
C438        H440   1.077       .  S
C441        C442   1.358       .  D
C441        H443   1.078       .  S
C442        H444   1.085       .  S
C445        C906   1.337       .  D
C445        H907   1.086       .  S
C446        C905   1.337   1_565  D
C446        H448   1.088       .  S
H447        C905   1.086       .  S
C449        C910   1.337       .  D
C449        H451   1.088       .  S
C450        C909   1.337       .  D
C450        H452   1.086   1_545  S
C453       C1374   1.347       .  D
C453        H455   1.087       .  S
C454       C1373   1.345       .  D
C454        H456   1.087       .  S
C457       C1378   1.346       .  D
C457       H1379   1.088       .  S
C458       C1377   1.346       .  D
C458       H1380   1.088       .  S
H459       C1377   1.088       .  S
H460       C1378   1.088       .  S
C461        C483   1.563       .  S
C461        C528   1.614       .  S
C461        C573   1.585       .  S
C461        C606   1.620       .  S
C462        C493   1.563       .  S
C462        C538   1.614       .  S
C462        C583   1.585       .  S
C462        C642   1.620       .  S
N463        N464   1.313       .  A
N463        N469   1.316   1_455  A
N464        C471   1.348       .  A
N465       N1387   1.319       .  A
N465        N466   1.309       .  A
N465       Mn481   2.171       .  S
N466       C1392   1.338       .  A
N467       N1385   1.319       .  A
N467        N468   1.325       .  A
N467       Mn492   2.224   1_655  S
N468        C472   1.362       .  A
N469        N470   1.320       .  A
N469       Mn941   2.171       .  S
N470        C471   1.351   1_655  A
C471        C675   1.452       .  S
C472       N1386   1.339       .  A
C472        C688   1.460       .  S
N473        N479   1.317       .  A
N473        N704   1.326       .  A
N474        N703   1.327       .  A
N474        C712   1.353       .  A
N475        N476   1.316       .  A
N475        N477   1.314       .  A
N476        C483   1.351       .  A
N477        N478   1.340       .  A
N477       Mn733   2.274       .  S
N478        C483   1.369       .  A
N479        N480   1.312       .  A
N479       Mn481   2.168       .  S
N480        C482   1.337       .  A
Mn481       N929   2.169       .  S
Mn481      Cl505   2.512       .  S
C482        N704   1.352       .  A
C482        C667   1.465       .  S
N484        N485   1.340       .  A
N484        N490   1.314       .  A
N484       Mn722   2.276   1_554  S
N485        C493   1.370       .  A
N486        N718   1.317   1_554  A
N486        N487   1.312   1_545  A
N486       Mn504   2.169   1_545  S
N487        C494   1.337   1_554  A
N488        N716   1.317       .  A
N488        N489   1.327       .  A
N489        C724   1.354   1_545  A
N490        N491   1.316       .  A
N491        C493   1.351       .  A
Mn492       N714   2.281       .  S
Mn492     Cl1425   2.574       .  S
C494        N719   1.353   1_565  A
C494        C672   1.467       .  S
N495        N496   1.325       .  A
N495        N501   1.319       .  A
N495       Mn503   2.226       .  S
N496        C506   1.363       .  A
N497        N498   1.320       .  A
N497        N499   1.316       .  A
N497       Mn964   2.167       .  S
N498        C507   1.350       .  A
N499        N500   1.313       .  A
N500        C507   1.349       .  A
N501       N1422   1.309       .  A
N501      Mn1424   2.172       .  S
N502       N1421   1.309       .  A
N502       C1426   1.339       .  A
Mn503       N707   2.278   1_554  S
Mn504       N957   2.170       .  S
Mn504      N1421   2.174       .  S
Mn504     Cl1195   2.511   1_565  S
Cl505     Mn1412   2.573       .  S
Cl505     Mn1194   2.512       .  S
C506       N1422   1.338       .  A
C506        C684   1.460       .  S
C507        C680   1.453       .  S
N508        N509   1.307       .  A
N508        N514   1.324       .  A
N508       Mn767   2.169       .  S
N509        C516   1.334       .  A
N510        N512   1.322       .  A
N510        N511   1.309       .  A
N510       Mn526   2.202       .  S
N511        C517   1.344       .  A
N512        N513   1.324       .  A
N512       Mn537   2.192       .  S
N513        C517   1.354       .  A
N514        N515   1.330       .  A
N514       Mn756   2.254       .  S
N515        C516   1.366       .  A
C516        C668   1.469       .  S
C517        C663   1.464       .  S
N518        N524   1.312   1_556  A
N518        N519   1.323       .  A
N518       Mn778   2.215       .  S
N519        C527   1.357   1_556  A
N520        N521   1.347       .  A
N520        N522   1.319       .  A
N520       Mn756   2.290       .  S
N521        C528   1.374       .  A
N522        N523   1.328       .  A
N522       Mn548   2.256       .  S
N523        C528   1.360       .  A
N524        N525   1.320       .  A
N524       Mn526   2.195       .  S
N525        C527   1.352       .  A
Mn526       N744   2.258       .  S
Mn526       N750   2.296   1_554  S
Mn526      Cl550   2.591       .  S
C527        C651   1.478       .  S
N529        N530   1.328       .  A
N529        N535   1.319       .  A
N529       Mn537   2.256       .  S
N530        C538   1.360       .  A
N531        N533   1.312       .  A
N531        N532   1.320       .  A
N531       Mn549   2.195       .  S
N532        C539   1.352       .  A
N533        N534   1.323       .  A
N533       Mn767   2.217       .  S
N534        C539   1.358       .  A
N535        N536   1.348       .  A
N535       Mn779   2.293   1_554  S
N536        C538   1.374       .  A
Mn537       N738   2.165       .  S
Mn537       N763   2.213       .  S
Mn537      Cl550   2.540       .  S
C539        C655   1.479       .  S
N540        N541   1.324       .  A
N540        N546   1.322       .  A
N540       Mn548   2.192       .  S
N541        C551   1.353       .  A
N542        N543   1.331       .  A
N542        N544   1.324       .  A
N542       Mn779   2.258       .  S
N543        C552   1.366       .  A
N544        N545   1.308       .  A
N544       Mn778   2.168       .  S
N545        C552   1.333       .  A
N546        N547   1.309       .  A
N546       Mn549   2.202       .  S
N547        C551   1.344       .  A
Mn548       N748   2.212       .  S
Mn548       N774   2.166       .  S
Mn548      Cl780   2.540       .  S
Mn549       N765   2.296       .  S
Mn549       N772   2.258       .  S
Mn549      Cl780   2.590       .  S
Cl550      Mn778   2.540   1_554  S
Cl550      Mn779   2.591   1_554  S
C551        C660   1.464       .  S
C552        C671   1.470       .  S
N553        N554   1.320       .  A
N553        N559   1.319       .  A
N553       Mn582   2.253       .  S
N554        C561   1.355       .  A
N555        N557   1.316       .  A
N555       N1476   1.327       .  A
N555       Mn571   2.241       .  S
N556       N1475   1.327       .  A
N556        C562   1.359       .  A
N557       N1478   1.306       .  A
N557       Mn582   2.119       .  S
N558       N1477   1.307       .  A
N558        C562   1.337       .  A
N559        N560   1.320       .  A
N559       Mn571   2.151       .  S
N560        C561   1.340       .  A
C561        C664   1.470       .  S
C562        C683   1.462       .  S
N563        N569   1.314       .  A
N563        N564   1.320       .  A
N563       Mn593   2.164       .  S
N564        C572   1.342       .  A
N565        N566   1.337       .  A
N565        N567   1.315       .  A
N565       Mn571   2.276       .  S
N566        C573   1.368       .  A
N567        N568   1.338       .  A
N567      Mn1513   2.296       .  S
N568        C573   1.370       .  A
N569        N570   1.316       .  A
N569      Mn1491   2.180   1_455  S
N570        C572   1.346       .  A
Mn571      N1489   2.177       .  S
Mn571      Cl595   2.556       .  S
C572        C647   1.458       .  S
N574        N575   1.338       .  A
N574        N580   1.315       .  A
N574      Mn1502   2.295   1_455  S
N575        C583   1.370       .  A
N576        N578   1.313       .  A
N576        N577   1.315       .  A
N576      Mn1514   2.177       .  S
N577        C584   1.346       .  A
N578        N579   1.320       .  A
N578       Mn582   2.165       .  S
N579        C584   1.343       .  A
N580        N581   1.337       .  A
N580       Mn594   2.276       .  S
N581        C583   1.368       .  A
Mn582      N1494   2.299       .  S
Mn582      Cl595   2.530       .  S
C584        C643   1.457       .  S
N585       N1506   1.306       .  A
N585        N591   1.316       .  A
N585       Mn593   2.119   1_655  S
N586       N1505   1.307       .  A
N586        C596   1.337       .  A
N587        N588   1.320       .  A
N587        N589   1.319       .  A
N587       Mn594   2.150       .  S
N588        C597   1.340       .  A
N589        N590   1.320       .  A
N589       Mn593   2.252       .  S
N590        C597   1.356       .  A
N591       N1512   1.326       .  A
N591       Mn594   2.242   1_655  S
N592       N1511   1.327       .  A
N592        C596   1.359       .  A
Mn593      N1487   2.295   1_455  S
Mn593     Cl1515   2.531       .  S
Mn594      N1496   2.176   1_455  S
Mn594     Cl1515   2.554       .  S
Cl595     Mn1513   2.530       .  S
Cl595     Mn1514   2.555       .  S
C596        C687   1.462       .  S
C597        C659   1.470       .  S
N598        N599   1.330       .  A
N598        N604   1.311       .  A
N598       Mn627   2.253       .  S
N599        C606   1.366       .  A
N600        N602   1.312       .  A
N600        N601   1.318       .  A
N600       Mn616   2.197       .  S
N601        C607   1.351       .  A
N602        N603   1.325       .  A
N603        C607   1.357       .  A
N604        N605   1.338       .  A
N605        C606   1.376       .  A
C607        C656   1.475       .  S
N608        N614   1.321       .  A
N608        N609   1.311       .  A
N608       Mn638   2.168       .  S
N609        C617   1.344       .  A
N610        N611   1.318       .  A
N610        N612   1.320       .  A
N611        C618   1.349       .  A
N612        N613   1.315       .  A
N613        C618   1.347       .  A
N614        N615   1.320       .  A
N614       Mn616   2.230       .  S
N615        C617   1.354       .  A
Mn616      Cl640   2.574       .  S
C617        C644   1.461       .  S
C618        C679   1.451       .  S
N619        N620   1.316       .  A
N619        N625   1.320       .  A
N620        C628   1.347       .  A
N621        N623   1.321       .  A
N621        N622   1.319       .  A
N621       Mn639   2.231       .  S
N622        C629   1.354       .  A
N623        N624   1.311       .  A
N623       Mn627   2.168       .  S
N624        C629   1.345       .  A
N625        N626   1.319       .  A
N626        C628   1.349       .  A
C628        C676   1.453       .  S
C629        C648   1.462       .  S
N630        N631   1.325       .  A
N630        N636   1.312   1_545  A
N631        C641   1.357   1_545  A
N632        N633   1.338       .  A
N632        N634   1.312       .  A
N633        C642   1.376       .  A
N634        N635   1.330       .  A
N634       Mn638   2.254       .  S
N635        C642   1.365       .  A
N636        N637   1.318       .  A
N636       Mn639   2.196       .  S
N637        C641   1.351       .  A
Mn638      Cl640   2.521       .  S
C641        C652   1.474       .  S
C643        C644   1.349       .  D
C643        H645   1.085       .  S
C644        H646   1.085       .  S
C647        C648   1.349       .  D
C647        H649   1.085       .  S
C648        H650   1.085       .  S
C651        C652   1.342       .  D
C651        H653   1.087       .  S
C652        H654   1.087       .  S
C655        C656   1.342       .  D
C655        H657   1.087       .  S
C656        H658   1.087       .  S
C659        C660   1.340       .  D
C659        H661   1.087       .  S
C660        H662   1.086       .  S
C663        C664   1.340       .  D
C663        H665   1.086       .  S
C664        H666   1.087       .  S
C667        C668   1.357       .  D
C667        H669   1.085       .  S
C668        H670   1.080       .  S
C671        C672   1.358       .  D
C671        H673   1.077       .  S
C672        H674   1.083       .  S
C676        H678   1.089       .  S
C679        H681   1.089       .  S
C680        H682   1.086       .  S
C683       C1604   1.345       .  D
C683        H685   1.087       .  S
C684       C1603   1.347       .  D
C684        H686   1.087       .  S
C687       C1608   1.345       .  D
C687       H1609   1.088       .  S
C688       C1607   1.346       .  D
C688       H1610   1.088       .  S
H689       C1607   1.088       .  S
H690       C1608   1.088       .  S
C691        C713   1.565       .  S
C691        C758   1.618       .  S
C691        C803   1.591       .  S
C691        C836   1.620       .  S
C692        C723   1.566       .  S
C692        C768   1.619       .  S
C692        C813   1.592       .  S
C692        C872   1.621       .  S
N693        N694   1.312       .  A
N693        N699   1.316   1_455  A
N694        C701   1.348       .  A
N695       N1617   1.319       .  A
N695        N696   1.309       .  A
N695       Mn711   2.172       .  S
N696       C1622   1.338       .  A
N697       N1615   1.319       .  A
N697        N698   1.325       .  A
N697       Mn722   2.222   1_655  S
N698        C702   1.362       .  A
N699        N700   1.321       .  A
N699      Mn1171   2.172       .  S
N700        C701   1.351   1_655  A
C701        C905   1.453       .  S
C702       N1616   1.339       .  A
C702        C918   1.460       .  S
N703        N709   1.316   1_554  A
N705        N706   1.317       .  A
N705        N707   1.314       .  A
N706        C713   1.351       .  A
N707        N708   1.340       .  A
N708        C713   1.370       .  A
N709        N710   1.312       .  A
N709       Mn711   2.169       .  S
N710        C712   1.338   1_556  A
Mn711      N1159   2.169       .  S
Mn711      Cl735   2.512   1_556  S
C712        C897   1.466       .  S
N714        N715   1.340       .  A
N714        N720   1.314       .  A
N715        C723   1.370       .  A
N716        N717   1.312   1_545  A
N716       Mn734   2.170   1_545  S
N717        C724   1.337       .  A
N718        N719   1.327       .  A
N720        N721   1.317       .  A
N721        C723   1.352       .  A
Mn722     Cl1655   2.574   1_556  S
C724        C902   1.468       .  S
N725        N726   1.325       .  A
N725        N731   1.319       .  A
N725       Mn733   2.227       .  S
N726        C736   1.363       .  A
N727        N728   1.321       .  A
N727        N729   1.316       .  A
N727      Mn1194   2.168       .  S
N728        C737   1.350       .  A
N729        N730   1.313       .  A
N730        C737   1.348       .  A
N731       N1652   1.309       .  A
N731      Mn1654   2.171       .  S
N732       N1651   1.309       .  A
N732       C1656   1.339       .  A
Mn734      N1187   2.169       .  S
Mn734      N1651   2.172       .  S
Mn734      Cl965   2.512   1_565  S
Cl735     Mn1642   2.575   1_554  S
Cl735      Mn964   2.513       .  S
C736       N1652   1.338       .  A
C736        C914   1.460       .  S
C737        C910   1.453       .  S
N738        N739   1.308       .  A
N738        N744   1.323       .  A
N739        C746   1.333       .  A
N740        N742   1.322       .  A
N740        N741   1.307       .  A
N740       Mn756   2.195       .  S
N741        C747   1.343       .  A
N742        N743   1.325       .  A
N742       Mn767   2.195       .  S
N743        C747   1.355       .  A
N744        N745   1.330       .  A
N745        C746   1.366       .  A
C746        C898   1.469       .  S
C747        C893   1.463       .  S
N748        N754   1.312       .  A
N748        N749   1.323       .  A
N749        C757   1.357       .  A
N750        N751   1.348       .  A
N750        N752   1.319       .  A
N751        C758   1.375       .  A
N752        N753   1.329       .  A
N752       Mn778   2.259       .  S
N753        C758   1.361       .  A
N754        N755   1.320       .  A
N754       Mn756   2.195       .  S
N755        C757   1.352       .  A
Mn756      Cl780   2.590       .  S
C757        C881   1.478       .  S
N759        N760   1.329       .  A
N759        N765   1.319       .  A
N759       Mn767   2.262       .  S
N760        C768   1.361       .  A
N761        N763   1.312   1_556  A
N761        N762   1.321       .  A
N761       Mn779   2.197       .  S
N762        C769   1.352       .  A
N763        N764   1.323       .  A
N764        C769   1.357   1_554  A
N765        N766   1.348       .  A
N766        C768   1.375       .  A
Mn767      Cl780   2.540       .  S
C769        C885   1.479       .  S
N770        N771   1.324       .  A
N770        N776   1.322       .  A
N770       Mn778   2.195       .  S
N771        C781   1.354       .  A
N772        N773   1.330       .  A
N772        N774   1.323       .  A
N773        C782   1.366       .  A
N774        N775   1.308       .  A
N775        C782   1.333       .  A
N776        N777   1.308       .  A
N776       Mn779   2.199       .  S
N777        C781   1.344       .  A
C781        C890   1.464       .  S
C782        C901   1.470       .  S
N783        N784   1.321       .  A
N783        N789   1.319       .  A
N783       Mn812   2.254       .  S
N784        C791   1.356       .  A
N785        N787   1.317       .  A
N785       N1706   1.327       .  A
N785       Mn801   2.243       .  S
N786       N1705   1.327       .  A
N786        C792   1.359       .  A
N787       N1708   1.307       .  A
N787       Mn812   2.122       .  S
N788       N1707   1.306       .  A
N788        C792   1.336       .  A
N789        N790   1.319       .  A
N789       Mn801   2.151       .  S
N790        C791   1.340       .  A
C791        C894   1.471       .  S
C792        C913   1.462       .  S
N793        N799   1.313       .  A
N793        N794   1.320       .  A
N793       Mn823   2.163       .  S
N794        C802   1.342       .  A
N795        N796   1.338       .  A
N795        N797   1.315       .  A
N795       Mn801   2.284       .  S
N796        C803   1.370       .  A
N797        N798   1.339       .  A
N797      Mn1743   2.298       .  S
N798        C803   1.371       .  A
N799        N800   1.315       .  A
N799      Mn1721   2.178   1_455  S
N800        C802   1.346       .  A
Mn801      N1719   2.179       .  S
Mn801      Cl825   2.555       .  S
C802        C877   1.456       .  S
N804        N805   1.339       .  A
N804        N810   1.315       .  A
N804      Mn1732   2.297   1_455  S
N805        C813   1.371       .  A
N806        N808   1.314       .  A
N806        N807   1.314       .  A
N806      Mn1744   2.176       .  S
N807        C814   1.345       .  A
N808        N809   1.320       .  A
N808       Mn812   2.166       .  S
N809        C814   1.343       .  A
N810        N811   1.339       .  A
N810       Mn824   2.285       .  S
N811        C813   1.370       .  A
Mn812      N1724   2.297       .  S
Mn812      Cl825   2.530       .  S
C814        C873   1.457       .  S
N815       N1736   1.307       .  A
N815        N821   1.316       .  A
N815       Mn823   2.121   1_655  S
N816       N1735   1.306       .  A
N816        C826   1.336       .  A
N817        N818   1.320       .  A
N817        N819   1.319       .  A
N817       Mn824   2.152       .  S
N818        C827   1.340       .  A
N819        N820   1.321       .  A
N819       Mn823   2.255       .  S
N820        C827   1.356       .  A
N821       N1742   1.327       .  A
N821       Mn824   2.244   1_655  S
N822       N1741   1.326       .  A
N822        C826   1.359       .  A
Mn823      N1717   2.295   1_455  S
Mn823     Cl1745   2.530       .  S
Mn824      N1726   2.179   1_455  S
Mn824     Cl1745   2.554       .  S
Cl825     Mn1743   2.530       .  S
Cl825     Mn1744   2.556       .  S
C826        C917   1.461       .  S
C827        C889   1.472       .  S
N828        N829   1.329       .  A
N828        N834   1.311       .  A
N828       Mn857   2.253       .  S
N829        C836   1.365       .  A
N830        N832   1.312       .  A
N830        N831   1.319       .  A
N830       Mn846   2.198       .  S
N831        C837   1.351       .  A
N832        N833   1.325       .  A
N833        C837   1.357       .  A
N834        N835   1.338       .  A
N835        C836   1.376       .  A
C837        C886   1.476       .  S
N838        N844   1.321       .  A
N838        N839   1.311       .  A
N838       Mn868   2.169       .  S
N839        C847   1.344       .  A
N840        N841   1.318       .  A
N840        N842   1.320       .  A
N841        C848   1.349       .  A
N842        N843   1.316       .  A
N843        C848   1.347       .  A
N844        N845   1.320       .  A
N844       Mn846   2.229       .  S
N845        C847   1.354       .  A
Mn846      Cl870   2.574       .  S
C847        C874   1.461       .  S
C848        C909   1.451       .  S
N849        N850   1.316       .  A
N849        N855   1.320       .  A
N850        C858   1.347       .  A
N851        N853   1.321       .  A
N851        N852   1.319       .  A
N851       Mn869   2.230       .  S
N852        C859   1.354       .  A
N853        N854   1.311       .  A
N853       Mn857   2.169       .  S
N854        C859   1.345       .  A
N855        N856   1.318       .  A
N856        C858   1.349       .  A
C858        C906   1.451       .  S
C859        C878   1.461       .  S
N860        N861   1.325       .  A
N860        N866   1.312   1_545  A
N861        C871   1.356   1_545  A
N862        N863   1.338       .  A
N862        N864   1.311       .  A
N863        C872   1.376       .  A
N864        N865   1.330       .  A
N864       Mn868   2.256       .  S
N865        C872   1.366       .  A
N866        N867   1.318       .  A
N866       Mn869   2.196       .  S
N867        C871   1.351       .  A
Mn868      Cl870   2.520       .  S
C871        C882   1.474       .  S
C873        C874   1.349       .  D
C873        H875   1.086       .  S
C874        H876   1.085       .  S
C877        C878   1.349       .  D
C877        H879   1.085       .  S
C878        H880   1.086       .  S
C881        C882   1.342       .  D
C881        H883   1.087       .  S
C882        H884   1.087       .  S
C885        C886   1.343       .  D
C885        H887   1.086       .  S
C886        H888   1.086       .  S
C889        C890   1.340       .  D
C889        H891   1.088       .  S
C890        H892   1.087       .  S
C893        C894   1.341       .  D
C893        H895   1.086       .  S
C894        H896   1.087       .  S
C897        C898   1.358       .  D
C897        H899   1.085       .  S
C898        H900   1.080       .  S
C901        C902   1.358       .  D
C901        H903   1.077       .  S
C902        H904   1.084       .  S
C906        H908   1.088       .  S
C909        H911   1.088       .  S
C910        H912   1.086       .  S
C913       C1834   1.346       .  D
C913        H915   1.088       .  S
C914       C1833   1.346       .  D
C914        H916   1.088       .  S
C917       C1838   1.346       .  D
C917       H1839   1.087       .  S
C918       C1837   1.345       .  D
C918       H1840   1.087       .  S
H919       C1837   1.087       .  S
H920       C1838   1.087       .  S
C921        C943   1.566       .  S
C921        C988   1.618       .  S
C921       C1033   1.591       .  S
C921       C1066   1.621       .  S
C922        C953   1.565       .  S
C922        C998   1.619       .  S
C922       C1043   1.591       .  S
C922       C1102   1.620       .  S
N923        N924   1.312       .  A
N923        N929   1.316       .  A
N923      Mn1412   2.202       .  S
N924        C931   1.348       .  A
N925        N926   1.309       .  A
N925       Mn941   2.172       .  S
N927        N928   1.325       .  A
N927       Mn952   2.224       .  S
N928        C932   1.363       .  A
N929        N930   1.321       .  A
N930        C931   1.350       .  A
C931       C1135   1.453       .  S
C932       C1148   1.460       .  S
N933        N939   1.316   1_565  A
N933       N1164   1.327       .  A
N933      Mn1653   2.207       .  S
N934       N1163   1.327       .  A
N934       C1172   1.353   1_565  A
N935        N936   1.317       .  A
N935        N937   1.314       .  A
N935      Mn1401   2.191       .  S
N936        C943   1.351       .  A
N937        N938   1.341       .  A
N937      Mn1193   2.281       .  S
N938        C943   1.371       .  A
N939        N940   1.312       .  A
N939       Mn941   2.170       .  S
N940        C942   1.338       .  A
Mn941      N1395   2.194   1_545  S
Mn941      Cl965   2.511   1_655  S
C942       N1164   1.353   1_545  A
C942       C1127   1.467       .  S
N944        N945   1.340       .  A
N944        N950   1.315       .  A
N944      Mn1182   2.279   1_554  S
N945        C953   1.370       .  A
N946       N1178   1.317   1_554  A
N946        N947   1.312       .  A
N946       Mn964   2.168       .  S
N947        C954   1.337   1_554  A
N948       N1176   1.317       .  A
N948        N949   1.327       .  A
N948      Mn1412   2.208       .  S
N949       C1184   1.353       .  A
N950        N951   1.317       .  A
N950      Mn1424   2.194   1_545  S
N951        C953   1.352       .  A
Mn952      N1383   2.201       .  S
Mn952      N1174   2.275       .  S
Mn952      N1408   2.207       .  S
C954       N1179   1.353       .  A
C954       C1132   1.467       .  S
N955        N956   1.325       .  A
N955        N961   1.319       .  A
N955       Mn963   2.227   1_455  S
N956        C966   1.363       .  A
N957        N958   1.321   1_565  A
N957        N959   1.316   1_455  A
N958        C967   1.351   1_445  A
N959        N960   1.312       .  A
N959      Mn1423   2.201       .  S
N960        C967   1.348       .  A
Mn963      N1623   2.208       .  S
Mn963      N1167   2.277   1_554  S
Mn963      N1419   2.202       .  S
Mn963     Cl1655   2.573   1_655  S
Mn964      N1410   2.191       .  S
Cl965     Mn1653   2.575   1_445  S
C966       C1144   1.460       .  S
C967       C1140   1.453   1_565  S
N968        N969   1.308       .  A
N968        N974   1.323       .  A
N968      Mn1227   2.165       .  S
N969        C976   1.333       .  A
N970        N972   1.322       .  A
N970        N971   1.307       .  A
N970       Mn986   2.195       .  S
N971        C977   1.343       .  A
N972        N973   1.325       .  A
N972       Mn997   2.196       .  S
N973        C977   1.354       .  A
N974        N975   1.330       .  A
N974      Mn1216   2.258       .  S
N975        C976   1.366       .  A
C976       C1128   1.469       .  S
C977       C1123   1.463       .  S
N978        N984   1.312   1_556  A
N978        N979   1.323       .  A
N978      Mn1238   2.213       .  S
N979        C987   1.357   1_556  A
N980        N981   1.348       .  A
N980        N982   1.319       .  A
N980      Mn1216   2.295       .  S
N981        C988   1.375       .  A
N982        N983   1.329       .  A
N982      Mn1008   2.260       .  S
N983        C988   1.361       .  A
N984        N985   1.320       .  A
N984       Mn986   2.195       .  S
N985        C987   1.352       .  A
Mn986      N1204   2.255       .  S
Mn986      N1210   2.291   1_554  S
Mn986     Cl1010   2.590       .  S
C987       C1111   1.478       .  S
N989        N990   1.329       .  A
N989        N995   1.319       .  A
N989       Mn997   2.261       .  S
N990        C998   1.361       .  A
N991        N993   1.312       .  A
N991        N992   1.321       .  A
N991      Mn1009   2.197       .  S
N992        C999   1.352       .  A
N993        N994   1.323       .  A
N993      Mn1227   2.212       .  S
N994        C999   1.357       .  A
N995        N996   1.348       .  A
N995      Mn1239   2.296   1_554  S
N996        C998   1.375       .  A
Mn997      N1198   2.169       .  S
Mn997      N1223   2.216       .  S
Mn997     Cl1010   2.540       .  S
C999       C1115   1.479       .  S
N1000      N1001   1.324       .  A
N1000      N1006   1.322       .  A
N1000     Mn1008   2.194       .  S
N1001      C1011   1.354       .  A
N1002      N1003   1.330       .  A
N1002      N1004   1.323       .  A
N1002     Mn1239   2.257       .  S
N1003      C1012   1.366       .  A
N1004      N1005   1.308       .  A
N1004     Mn1238   2.166       .  S
N1005      C1012   1.333       .  A
N1006      N1007   1.308       .  A
N1006     Mn1009   2.199       .  S
N1007      C1011   1.344       .  A
Mn1008     N1208   2.215       .  S
Mn1008     N1234   2.168       .  S
Mn1008    Cl1240   2.540       .  S
Mn1009     N1225   2.292       .  S
Mn1009     N1232   2.258       .  S
Mn1009    Cl1240   2.591       .  S
Cl1010    Mn1238   2.540   1_554  S
Cl1010    Mn1239   2.591   1_554  S
C1011      C1120   1.464       .  S
C1012      C1131   1.469       .  S
N1013      N1014   1.321       .  A
N1013      N1019   1.319       .  A
N1013     Mn1042   2.254       .  S
N1014      C1021   1.356       .  A
N1015      N1017   1.317       .  A
N1015     Mn1031   2.244   1_455  S
N1016      C1022   1.359       .  A
N1017     Mn1042   2.122   1_455  S
N1018      C1022   1.336       .  A
N1019      N1020   1.319       .  A
N1019     Mn1031   2.150       .  S
N1020      C1021   1.340       .  A
C1021      C1124   1.471       .  S
C1022      C1143   1.462       .  S
N1023      N1029   1.313       .  A
N1023      N1024   1.320       .  A
N1023     Mn1053   2.165       .  S
N1024      C1032   1.343       .  A
N1025      N1026   1.338       .  A
N1025      N1027   1.315       .  A
N1025     Mn1031   2.284       .  S
N1026      C1033   1.369       .  A
N1027      N1028   1.339       .  A
N1028      C1033   1.371       .  A
N1029      N1030   1.315       .  A
N1030      C1032   1.346       .  A
Mn1031    Cl1055   2.555   1_655  S
C1032      C1107   1.456       .  S
N1034      N1035   1.338       .  A
N1034      N1040   1.315       .  A
N1035      C1043   1.370       .  A
N1036      N1038   1.314       .  A
N1036      N1037   1.315       .  A
N1037      C1044   1.345       .  A
N1038      N1039   1.320       .  A
N1038     Mn1042   2.166       .  S
N1039      C1044   1.343       .  A
N1040      N1041   1.339       .  A
N1040     Mn1054   2.286       .  S
N1041      C1043   1.370       .  A
Mn1042    Cl1055   2.530   1_655  S
C1044      C1103   1.457       .  S
N1045      N1051   1.317       .  A
N1045     Mn1053   2.122       .  S
N1046      C1056   1.336       .  A
N1047      N1048   1.320       .  A
N1047      N1049   1.320       .  A
N1047     Mn1054   2.153       .  S
N1048      C1057   1.340       .  A
N1049      N1050   1.321       .  A
N1049     Mn1053   2.253       .  S
N1050      C1057   1.356       .  A
N1051     Mn1054   2.243       .  S
N1052      C1056   1.359       .  A
C1056      C1147   1.462       .  S
C1057      C1119   1.472       .  S
N1058      N1059   1.329       .  A
N1058      N1064   1.311       .  A
N1058     Mn1087   2.254       .  S
N1059      C1066   1.365       .  A
N1060      N1062   1.312   1_545  A
N1060      N1061   1.319       .  A
N1060     Mn1076   2.198       .  S
N1061      C1067   1.351       .  A
N1062      N1063   1.325   1_565  A
N1062     Mn1547   2.207       .  S
N1063      C1067   1.357       .  A
N1064      N1065   1.338       .  A
N1064     Mn1536   2.283       .  S
N1065      C1066   1.376       .  A
C1067      C1116   1.475       .  S
N1068      N1074   1.321       .  A
N1068      N1069   1.311       .  A
N1068     Mn1098   2.169       .  S
N1069      C1077   1.345       .  A
N1070      N1071   1.318       .  A
N1070      N1072   1.320       .  A
N1070     Mn1536   2.171       .  S
N1071      C1078   1.349       .  A
N1072      N1073   1.316       .  A
N1072     Mn1558   2.210       .  S
N1073      C1078   1.347       .  A
N1074      N1075   1.319       .  A
N1074     Mn1076   2.228       .  S
N1075      C1077   1.354       .  A
Mn1076     N1524   2.281   1_545  S
Mn1076     N1530   2.173       .  S
Mn1076    Cl1100   2.573       .  S
C1077      C1104   1.461       .  S
C1078      C1139   1.451       .  S
N1079      N1080   1.316       .  A
N1079      N1085   1.320       .  A
N1079     Mn1547   2.211       .  S
N1080      C1088   1.347       .  A
N1081      N1083   1.321       .  A
N1081      N1082   1.319       .  A
N1081     Mn1099   2.229       .  S
N1082      C1089   1.354       .  A
N1083      N1084   1.311       .  A
N1083     Mn1087   2.169       .  S
N1084      C1089   1.345       .  A
N1085      N1086   1.318       .  A
N1085     Mn1559   2.173       .  S
N1086      C1088   1.349       .  A
Mn1087     N1522   2.207       .  S
Mn1087     N1539   2.211       .  S
Mn1087    Cl1560   2.519       .  S
C1088      C1136   1.452       .  S
C1089      C1108   1.461       .  S
N1090      N1091   1.325       .  A
N1090      N1096   1.312       .  A
N1090     Mn1558   2.207       .  S
N1091      C1101   1.357       .  A
N1092      N1093   1.338       .  A
N1092      N1094   1.311       .  A
N1092     Mn1559   2.280   1_545  S
N1093      C1102   1.375       .  A
N1094      N1095   1.330       .  A
N1094     Mn1098   2.257       .  S
N1095      C1102   1.366       .  A
N1096      N1097   1.318       .  A
N1096     Mn1099   2.195       .  S
N1097      C1101   1.351       .  A
Mn1098     N1532   2.212       .  S
Mn1098     N1550   2.206       .  S
Mn1098    Cl1100   2.521       .  S
Mn1099     N1545   2.171       .  S
Mn1099     N1552   2.283       .  S
Mn1099    Cl1560   2.574       .  S
Cl1100    Mn1547   2.521   1_545  S
Cl1100    Mn1559   2.573   1_545  S
C1101      C1112   1.474       .  S
C1103      C1104   1.349       .  D
C1103      H1105   1.085       .  S
C1104      H1106   1.085       .  S
C1107      C1108   1.349       .  D
C1107      H1109   1.086       .  S
C1108      H1110   1.086       .  S
C1111      C1112   1.342       .  D
C1111      H1113   1.086       .  S
C1112      H1114   1.086       .  S
C1115      C1116   1.343       .  D
C1115      H1117   1.086       .  S
C1116      H1118   1.086       .  S
C1119      C1120   1.341       .  D
C1119      H1121   1.087       .  S
C1120      H1122   1.086       .  S
C1123      C1124   1.341       .  D
C1123      H1125   1.088       .  S
C1124      H1126   1.088       .  S
C1127      C1128   1.358       .  D
C1127      H1129   1.084       .  S
C1128      H1130   1.078       .  S
C1131      C1132   1.358       .  D
C1131      H1133   1.078       .  S
C1132      H1134   1.084       .  S
C1135      C1596   1.337       .  D
C1135      H1597   1.086       .  S
C1136      C1595   1.337   1_565  D
C1136      H1138   1.088       .  S
H1137      C1595   1.086       .  S
C1139      C1600   1.337       .  D
C1139      H1141   1.088       .  S
C1140      C1599   1.337       .  D
C1140      H1142   1.086   1_545  S
C1143      H1145   1.088       .  S
C1144      H1146   1.088       .  S
C1151      C1173   1.564       .  S
C1151      C1218   1.614       .  S
C1151      C1263   1.585       .  S
C1151      C1296   1.621       .  S
C1152      C1183   1.563       .  S
C1152      C1228   1.614       .  S
C1152      C1273   1.585       .  S
C1152      C1332   1.620       .  S
N1153      N1154   1.313       .  A
N1153      N1159   1.316       .  A
N1153     Mn1642   2.203       .  S
N1154      C1161   1.348       .  A
N1155      N1156   1.309       .  A
N1155     Mn1171   2.171       .  S
N1157      N1158   1.325       .  A
N1157     Mn1182   2.225       .  S
N1158      C1162   1.363       .  A
N1159      N1160   1.320       .  A
N1160      C1161   1.350       .  A
C1161      C1365   1.452       .  S
C1162      C1378   1.460       .  S
N1163      N1169   1.317   1_564  A
N1163     Mn1423   2.207       .  S
N1165      N1166   1.316       .  A
N1165      N1167   1.314       .  A
N1165     Mn1631   2.191       .  S
N1166      C1173   1.351       .  A
N1167      N1168   1.340       .  A
N1168      C1173   1.370       .  A
N1169      N1170   1.312       .  A
N1169     Mn1171   2.169       .  S
N1170      C1172   1.337   1_556  A
Mn1171     N1625   2.190   1_545  S
Mn1171    Cl1195   2.510   1_656  S
C1172      C1357   1.466       .  S
N1174      N1175   1.340       .  A
N1174      N1180   1.314       .  A
N1175      C1183   1.369       .  A
N1176      N1177   1.311       .  A
N1176     Mn1194   2.168       .  S
N1177      C1184   1.337       .  A
N1178      N1179   1.327       .  A
N1178     Mn1642   2.209       .  S
N1180      N1181   1.316       .  A
N1180     Mn1654   2.191   1_545  S
N1181      C1183   1.351       .  A
Mn1182     N1613   2.205       .  S
Mn1182     N1638   2.207       .  S
C1184      C1362   1.466       .  S
N1185      N1186   1.325       .  A
N1185      N1191   1.319       .  A
N1185     Mn1193   2.226   1_455  S
N1186      C1196   1.363       .  A
N1187      N1188   1.320   1_565  A
N1187      N1189   1.316   1_455  A
N1188      C1197   1.350   1_445  A
N1189      N1190   1.313       .  A
N1189     Mn1653   2.205       .  S
N1190      C1197   1.349       .  A
Mn1193     N1393   2.209       .  S
Mn1193     N1649   2.203       .  S
Mn1193    Cl1425   2.575   1_655  S
Mn1194     N1640   2.191       .  S
Cl1195    Mn1423   2.574   1_445  S
C1196      C1374   1.460       .  S
C1197      C1370   1.453   1_565  S
N1198      N1199   1.308       .  A
N1198      N1204   1.324       .  A
N1199      C1206   1.334       .  A
N1200      N1202   1.322       .  A
N1200      N1201   1.308       .  A
N1200     Mn1216   2.200       .  S
N1201      C1207   1.344       .  A
N1202      N1203   1.324       .  A
N1202     Mn1227   2.192       .  S
N1203      C1207   1.354       .  A
N1204      N1205   1.330       .  A
N1205      C1206   1.366       .  A
C1206      C1358   1.469       .  S
C1207      C1353   1.463       .  S
N1208      N1214   1.312       .  A
N1208      N1209   1.323       .  A
N1209      C1217   1.357       .  A
N1210      N1211   1.347       .  A
N1210      N1212   1.319       .  A
N1211      C1218   1.374       .  A
N1212      N1213   1.328       .  A
N1212     Mn1238   2.256       .  S
N1213      C1218   1.360       .  A
N1214      N1215   1.320       .  A
N1214     Mn1216   2.196       .  S
N1215      C1217   1.352       .  A
Mn1216    Cl1240   2.591       .  S
C1217      C1341   1.479       .  S
N1219      N1220   1.328       .  A
N1219      N1225   1.319       .  A
N1219     Mn1227   2.256       .  S
N1220      C1228   1.360       .  A
N1221      N1223   1.312   1_556  A
N1221      N1222   1.320       .  A
N1221     Mn1239   2.194       .  S
N1222      C1229   1.352       .  A
N1223      N1224   1.323       .  A
N1224      C1229   1.357   1_554  A
N1225      N1226   1.347       .  A
N1226      C1228   1.374       .  A
Mn1227    Cl1240   2.540       .  S
C1229      C1345   1.479       .  S
N1230      N1231   1.324       .  A
N1230      N1236   1.322       .  A
N1230     Mn1238   2.192       .  S
N1231      C1241   1.353       .  A
N1232      N1233   1.331       .  A
N1232      N1234   1.324       .  A
N1233      C1242   1.366       .  A
N1234      N1235   1.307       .  A
N1235      C1242   1.333       .  A
N1236      N1237   1.309       .  A
N1236     Mn1239   2.203       .  S
N1237      C1241   1.344       .  A
C1241      C1350   1.464       .  S
C1242      C1361   1.470       .  S
N1243      N1244   1.320       .  A
N1243      N1249   1.319       .  A
N1243     Mn1272   2.253       .  S
N1244      C1251   1.356       .  A
N1245      N1247   1.316       .  A
N1245     Mn1261   2.241   1_455  S
N1246      C1252   1.359       .  A
N1247     Mn1272   2.119   1_455  S
N1248      C1252   1.336       .  A
N1249      N1250   1.320       .  A
N1249     Mn1261   2.150       .  S
N1250      C1251   1.340       .  A
C1251      C1354   1.470       .  S
C1252      C1373   1.462       .  S
N1253      N1259   1.314       .  A
N1253      N1254   1.320       .  A
N1253     Mn1283   2.165       .  S
N1254      C1262   1.342       .  A
N1255      N1256   1.337       .  A
N1255      N1257   1.315       .  A
N1255     Mn1261   2.274       .  S
N1256      C1263   1.367       .  A
N1257      N1258   1.338       .  A
N1258      C1263   1.371       .  A
N1259      N1260   1.315       .  A
N1260      C1262   1.346       .  A
Mn1261    Cl1285   2.557   1_655  S
C1262      C1337   1.457       .  S
N1264      N1265   1.338       .  A
N1264      N1270   1.315       .  A
N1265      C1273   1.370       .  A
N1266      N1268   1.313       .  A
N1266      N1267   1.315       .  A
N1267      C1274   1.346       .  A
N1268      N1269   1.320       .  A
N1268     Mn1272   2.165       .  S
N1269      C1274   1.343       .  A
N1270      N1271   1.337       .  A
N1270     Mn1284   2.277       .  S
N1271      C1273   1.368       .  A
Mn1272    Cl1285   2.530   1_655  S
C1274      C1333   1.457       .  S
N1275      N1281   1.316       .  A
N1275     Mn1283   2.120       .  S
N1276      C1286   1.336       .  A
N1277      N1278   1.320       .  A
N1277      N1279   1.319       .  A
N1277     Mn1284   2.152       .  S
N1278      C1287   1.340       .  A
N1279      N1280   1.320       .  A
N1279     Mn1283   2.252       .  S
N1280      C1287   1.355       .  A
N1281     Mn1284   2.241       .  S
N1282      C1286   1.359       .  A
C1286      C1377   1.462       .  S
C1287      C1349   1.471       .  S
N1288      N1289   1.330       .  A
N1288      N1294   1.311       .  A
N1288     Mn1317   2.254       .  S
N1289      C1296   1.366       .  A
N1290      N1292   1.312   1_545  A
N1290      N1291   1.318       .  A
N1290     Mn1306   2.198       .  S
N1291      C1297   1.351       .  A
N1292      N1293   1.325   1_565  A
N1292     Mn1777   2.206       .  S
N1293      C1297   1.357       .  A
N1294      N1295   1.338       .  A
N1294     Mn1766   2.285       .  S
N1295      C1296   1.376       .  A
C1297      C1346   1.475       .  S
N1298      N1304   1.321       .  A
N1298      N1299   1.311       .  A
N1298     Mn1328   2.168       .  S
N1299      C1307   1.344       .  A
N1300      N1301   1.318       .  A
N1300      N1302   1.320       .  A
N1300     Mn1766   2.173       .  S
N1301      C1308   1.349       .  A
N1302      N1303   1.316       .  A
N1302     Mn1788   2.211       .  S
N1303      C1308   1.347       .  A
N1304      N1305   1.320       .  A
N1304     Mn1306   2.230       .  S
N1305      C1307   1.354       .  A
Mn1306     N1754   2.283   1_545  S
Mn1306     N1760   2.175       .  S
Mn1306    Cl1330   2.574       .  S
C1307      C1334   1.462       .  S
C1308      C1369   1.452       .  S
N1309      N1310   1.316       .  A
N1309      N1315   1.320       .  A
N1309     Mn1777   2.214       .  S
N1310      C1318   1.347       .  A
N1311      N1313   1.321       .  A
N1311      N1312   1.319       .  A
N1311     Mn1329   2.230       .  S
N1312      C1319   1.354       .  A
N1313      N1314   1.311       .  A
N1313     Mn1317   2.168       .  S
N1314      C1319   1.345       .  A
N1315      N1316   1.319       .  A
N1315     Mn1789   2.175       .  S
N1316      C1318   1.349       .  A
Mn1317     N1752   2.205       .  S
Mn1317     N1769   2.210       .  S
Mn1317    Cl1790   2.523       .  S
C1318      C1366   1.453       .  S
C1319      C1338   1.461       .  S
N1320      N1321   1.325       .  A
N1320      N1326   1.312       .  A
N1320     Mn1788   2.205       .  S
N1321      C1331   1.357       .  A
N1322      N1323   1.338       .  A
N1322      N1324   1.312       .  A
N1322     Mn1789   2.283   1_545  S
N1323      C1332   1.376       .  A
N1324      N1325   1.330       .  A
N1324     Mn1328   2.256       .  S
N1325      C1332   1.366       .  A
N1326      N1327   1.318       .  A
N1326     Mn1329   2.196       .  S
N1327      C1331   1.350       .  A
Mn1328     N1762   2.213       .  S
Mn1328     N1780   2.206       .  S
Mn1328    Cl1330   2.523       .  S
Mn1329     N1775   2.173       .  S
Mn1329     N1782   2.286       .  S
Mn1329    Cl1790   2.572       .  S
Cl1330    Mn1777   2.523   1_545  S
Cl1330    Mn1789   2.574   1_545  S
C1331      C1342   1.474       .  S
C1333      C1334   1.349       .  D
C1333      H1335   1.085       .  S
C1334      H1336   1.085       .  S
C1337      C1338   1.349       .  D
C1337      H1339   1.086       .  S
C1338      H1340   1.085       .  S
C1341      C1342   1.342       .  D
C1341      H1343   1.087       .  S
C1342      H1344   1.087       .  S
C1345      C1346   1.342       .  D
C1345      H1347   1.087       .  S
C1346      H1348   1.087       .  S
C1349      C1350   1.340       .  D
C1349      H1351   1.086       .  S
C1350      H1352   1.085       .  S
C1353      C1354   1.340       .  D
C1353      H1355   1.086       .  S
C1354      H1356   1.087       .  S
C1357      C1358   1.357       .  D
C1357      H1359   1.085       .  S
C1358      H1360   1.080       .  S
C1361      C1362   1.358       .  D
C1361      H1363   1.079       .  S
C1362      H1364   1.085       .  S
C1365      C1826   1.336       .  D
C1365      H1827   1.086       .  S
C1366      C1825   1.337   1_565  D
C1366      H1368   1.089       .  S
H1367      C1825   1.086       .  S
C1369      C1830   1.337       .  D
C1369      H1371   1.089       .  S
C1370      C1829   1.337       .  D
C1370      H1372   1.086   1_545  S
C1373      H1375   1.087       .  S
C1374      H1376   1.087       .  S
C1381      C1403   1.565       .  S
C1381      C1448   1.619       .  S
C1381      C1493   1.591       .  S
C1381      C1526   1.620       .  S
C1382      C1413   1.566       .  S
C1382      C1458   1.618       .  S
C1382      C1503   1.591       .  S
C1382      C1562   1.621       .  S
N1383      N1384   1.312       .  A
N1383      N1389   1.316       .  A
N1384      C1391   1.348       .  A
N1385      N1386   1.309       .  A
N1385     Mn1401   2.173       .  S
N1387      N1388   1.325       .  A
N1387     Mn1412   2.226       .  S
N1388      C1392   1.363       .  A
N1389      N1390   1.321       .  A
N1390      C1391   1.351       .  A
C1391      C1595   1.453       .  S
C1392      C1608   1.460       .  S
N1393      N1399   1.317       .  A
N1393      N1624   1.327       .  A
N1394      N1623   1.327       .  A
N1394      C1632   1.353       .  A
N1395      N1396   1.317       .  A
N1395      N1397   1.315       .  A
N1396      C1403   1.352       .  A
N1397      N1398   1.340       .  A
N1397     Mn1653   2.279       .  S
N1398      C1403   1.370       .  A
N1399      N1400   1.312       .  A
N1399     Mn1401   2.169       .  S
N1400      C1402   1.337       .  A
Mn1401    Cl1425   2.513   1_655  S
C1402      N1624   1.353       .  A
C1402      C1587   1.467       .  S
N1404      N1405   1.341       .  A
N1404      N1410   1.314       .  A
N1404     Mn1642   2.281   1_554  S
N1405      C1413   1.371       .  A
N1406      N1638   1.316   1_554  A
N1406      N1407   1.312   1_545  A
N1406     Mn1424   2.170   1_545  S
N1407      C1414   1.338   1_554  A
N1408      N1636   1.317       .  A
N1408      N1409   1.327       .  A
N1409      C1644   1.353   1_545  A
N1410      N1411   1.317       .  A
N1411      C1413   1.351       .  A
Mn1412     N1634   2.277       .  S
C1414      N1639   1.353   1_565  A
C1414      C1592   1.467       .  S
N1415      N1416   1.325       .  A
N1415      N1421   1.319       .  A
N1415     Mn1423   2.224   1_455  S
N1416      C1426   1.362       .  A
N1417      N1418   1.320       .  A
N1417      N1419   1.316   1_455  A
N1418      C1427   1.350   1_455  A
N1419      N1420   1.312       .  A
N1420      C1427   1.348       .  A
Mn1423     N1627   2.275   1_554  S
C1426      C1604   1.460       .  S
C1427      C1600   1.452       .  S
N1428      N1429   1.308       .  A
N1428      N1434   1.323       .  A
N1428     Mn1687   2.165       .  S
N1429      C1436   1.333       .  A
N1430      N1432   1.322       .  A
N1430      N1431   1.308       .  A
N1430     Mn1446   2.199       .  S
N1431      C1437   1.344       .  A
N1432      N1433   1.324       .  A
N1432     Mn1457   2.194       .  S
N1433      C1437   1.354       .  A
N1434      N1435   1.330       .  A
N1434     Mn1676   2.257       .  S
N1435      C1436   1.366       .  A
C1436      C1588   1.469       .  S
C1437      C1583   1.463       .  S
N1438      N1444   1.312   1_556  A
N1438      N1439   1.323       .  A
N1438     Mn1698   2.213       .  S
N1439      C1447   1.357   1_556  A
N1440      N1441   1.348       .  A
N1440      N1442   1.319       .  A
N1440     Mn1676   2.296       .  S
N1441      C1448   1.375       .  A
N1442      N1443   1.329       .  A
N1442     Mn1468   2.262       .  S
N1443      C1448   1.361       .  A
N1444      N1445   1.321       .  A
N1444     Mn1446   2.197       .  S
N1445      C1447   1.352       .  A
Mn1446     N1664   2.257       .  S
Mn1446     N1670   2.292   1_554  S
Mn1446    Cl1470   2.591       .  S
C1447      C1571   1.479       .  S
N1449      N1450   1.329       .  A
N1449      N1455   1.319       .  A
N1449     Mn1457   2.260       .  S
N1450      C1458   1.361       .  A
N1451      N1453   1.312       .  A
N1451      N1452   1.320       .  A
N1451     Mn1469   2.195       .  S
N1452      C1459   1.352       .  A
N1453      N1454   1.323       .  A
N1453     Mn1687   2.214       .  S
N1454      C1459   1.357       .  A
N1455      N1456   1.348       .  A
N1455     Mn1699   2.295   1_554  S
N1456      C1458   1.375       .  A
Mn1457     N1658   2.167       .  S
Mn1457     N1683   2.215       .  S
Mn1457    Cl1470   2.539       .  S
C1459      C1575   1.479       .  S
N1460      N1461   1.325       .  A
N1460      N1466   1.322       .  A
N1460     Mn1468   2.196       .  S
N1461      C1471   1.354       .  A
N1462      N1463   1.330       .  A
N1462      N1464   1.323       .  A
N1462     Mn1699   2.258       .  S
N1463      C1472   1.366       .  A
N1464      N1465   1.308       .  A
N1464     Mn1698   2.164       .  S
N1465      C1472   1.333       .  A
N1466      N1467   1.307       .  A
N1466     Mn1469   2.195       .  S
N1467      C1471   1.343       .  A
Mn1468     N1668   2.217       .  S
Mn1468     N1694   2.169       .  S
Mn1468    Cl1700   2.540       .  S
Mn1469     N1685   2.291       .  S
Mn1469     N1692   2.255       .  S
Mn1469    Cl1700   2.590       .  S
Cl1470    Mn1698   2.540   1_554  S
Cl1470    Mn1699   2.591   1_554  S
C1471      C1580   1.463       .  S
C1472      C1591   1.469       .  S
N1473      N1474   1.321       .  A
N1473      N1479   1.320       .  A
N1473     Mn1502   2.253       .  S
N1474      C1481   1.356       .  A
N1475      N1477   1.317       .  A
N1475     Mn1491   2.243   1_455  S
N1476      C1482   1.359       .  A
N1477     Mn1502   2.122   1_455  S
N1478      C1482   1.336       .  A
N1479      N1480   1.320       .  A
N1479     Mn1491   2.152       .  S
N1480      C1481   1.340       .  A
C1481      C1584   1.472       .  S
C1482      C1603   1.462       .  S
N1483      N1489   1.314       .  A
N1483      N1484   1.320       .  A
N1483     Mn1513   2.166       .  S
N1484      C1492   1.343       .  A
N1485      N1486   1.339       .  A
N1485      N1487   1.315       .  A
N1485     Mn1491   2.286       .  S
N1486      C1493   1.370       .  A
N1487      N1488   1.338       .  A
N1488      C1493   1.370       .  A
N1489      N1490   1.315       .  A
N1490      C1492   1.345       .  A
Mn1491    Cl1515   2.554   1_655  S
C1492      C1567   1.457       .  S
N1494      N1495   1.339       .  A
N1494      N1500   1.315       .  A
N1495      C1503   1.371       .  A
N1496      N1498   1.313       .  A
N1496      N1497   1.315       .  A
N1497      C1504   1.346       .  A
N1498      N1499   1.320       .  A
N1498     Mn1502   2.165       .  S
N1499      C1504   1.343       .  A
N1500      N1501   1.338       .  A
N1500     Mn1514   2.283       .  S
N1501      C1503   1.369       .  A
Mn1502    Cl1515   2.530   1_655  S
C1504      C1563   1.456       .  S
N1505      N1511   1.317       .  A
N1505     Mn1513   2.122       .  S
N1506      C1516   1.336       .  A
N1507      N1508   1.319       .  A
N1507      N1509   1.319       .  A
N1507     Mn1514   2.150       .  S
N1508      C1517   1.340       .  A
N1509      N1510   1.321       .  A
N1509     Mn1513   2.254       .  S
N1510      C1517   1.356       .  A
N1511     Mn1514   2.244       .  S
N1512      C1516   1.359       .  A
C1516      C1607   1.462       .  S
C1517      C1579   1.471       .  S
N1518      N1519   1.330       .  A
N1518      N1524   1.311       .  A
N1518     Mn1547   2.256       .  S
N1519      C1526   1.366       .  A
N1520      N1522   1.312       .  A
N1520      N1521   1.318       .  A
N1520     Mn1536   2.196       .  S
N1521      C1527   1.351       .  A
N1522      N1523   1.325       .  A
N1523      C1527   1.357       .  A
N1524      N1525   1.338       .  A
N1525      C1526   1.376       .  A
C1527      C1576   1.475       .  S
N1528      N1534   1.321       .  A
N1528      N1529   1.311       .  A
N1528     Mn1558   2.169       .  S
N1529      C1537   1.345       .  A
N1530      N1531   1.318       .  A
N1530      N1532   1.320       .  A
N1531      C1538   1.349       .  A
N1532      N1533   1.316       .  A
N1533      C1538   1.347       .  A
N1534      N1535   1.319       .  A
N1534     Mn1536   2.229       .  S
N1535      C1537   1.354       .  A
Mn1536    Cl1560   2.574       .  S
C1537      C1564   1.461       .  S
C1538      C1599   1.452       .  S
N1539      N1540   1.316       .  A
N1539      N1545   1.320       .  A
N1540      C1548   1.347       .  A
N1541      N1543   1.321       .  A
N1541      N1542   1.319       .  A
N1541     Mn1559   2.227       .  S
N1542      C1549   1.353       .  A
N1543      N1544   1.311       .  A
N1543     Mn1547   2.170       .  S
N1544      C1549   1.345       .  A
N1545      N1546   1.318       .  A
N1546      C1548   1.349       .  A
C1548      C1596   1.451       .  S
C1549      C1568   1.461       .  S
N1550      N1551   1.325       .  A
N1550      N1556   1.312   1_545  A
N1551      C1561   1.357   1_545  A
N1552      N1553   1.338       .  A
N1552      N1554   1.311       .  A
N1553      C1562   1.376       .  A
N1554      N1555   1.329       .  A
N1554     Mn1558   2.253       .  S
N1555      C1562   1.365       .  A
N1556      N1557   1.319       .  A
N1556     Mn1559   2.199       .  S
N1557      C1561   1.351       .  A
Mn1558    Cl1560   2.519       .  S
C1561      C1572   1.476       .  S
C1563      C1564   1.349       .  D
C1563      H1565   1.085       .  S
C1564      H1566   1.085       .  S
C1567      C1568   1.349       .  D
C1567      H1569   1.085       .  S
C1568      H1570   1.085       .  S
C1571      C1572   1.343       .  D
C1571      H1573   1.086       .  S
C1572      H1574   1.086       .  S
C1575      C1576   1.342       .  D
C1575      H1577   1.086       .  S
C1576      H1578   1.086       .  S
C1579      C1580   1.341       .  D
C1579      H1581   1.088       .  S
C1580      H1582   1.088       .  S
C1583      C1584   1.341       .  D
C1583      H1585   1.086       .  S
C1584      H1586   1.087       .  S
C1587      C1588   1.358       .  D
C1587      H1589   1.084       .  S
C1588      H1590   1.078       .  S
C1591      C1592   1.358       .  D
C1591      H1593   1.078       .  S
C1592      H1594   1.084       .  S
C1596      H1598   1.088       .  S
C1599      H1601   1.088       .  S
C1600      H1602   1.086       .  S
C1603      H1605   1.087       .  S
C1604      H1606   1.087       .  S
C1611      C1633   1.563       .  S
C1611      C1678   1.614       .  S
C1611      C1723   1.585       .  S
C1611      C1756   1.620       .  S
C1612      C1643   1.564       .  S
C1612      C1688   1.613       .  S
C1612      C1733   1.585       .  S
C1612      C1792   1.621       .  S
N1613      N1614   1.313       .  A
N1613      N1619   1.316       .  A
N1614      C1621   1.349       .  A
N1615      N1616   1.309       .  A
N1615     Mn1631   2.174       .  S
N1617      N1618   1.325       .  A
N1617     Mn1642   2.226       .  S
N1618      C1622   1.363       .  A
N1619      N1620   1.320       .  A
N1620      C1621   1.350       .  A
C1621      C1825   1.453       .  S
C1622      C1838   1.460       .  S
N1623      N1629   1.317   1_554  A
N1625      N1626   1.316       .  A
N1625      N1627   1.314       .  A
N1626      C1633   1.351       .  A
N1627      N1628   1.340       .  A
N1628      C1633   1.369       .  A
N1629      N1630   1.311       .  A
N1629     Mn1631   2.167       .  S
N1630      C1632   1.337   1_556  A
Mn1631    Cl1655   2.512   1_656  S
C1632      C1817   1.466       .  S
N1634      N1635   1.340       .  A
N1634      N1640   1.314       .  A
N1635      C1643   1.370       .  A
N1636      N1637   1.312   1_545  A
N1636     Mn1654   2.169   1_545  S
N1637      C1644   1.337       .  A
N1638      N1639   1.327       .  A
N1640      N1641   1.316       .  A
N1641      C1643   1.351       .  A
C1644      C1822   1.466       .  S
N1645      N1646   1.325       .  A
N1645      N1651   1.319       .  A
N1645     Mn1653   2.225   1_455  S
N1646      C1656   1.362       .  A
N1647      N1648   1.320       .  A
N1647      N1649   1.316   1_455  A
N1648      C1657   1.350   1_455  A
N1649      N1650   1.313       .  A
N1650      C1657   1.348       .  A
C1656      C1834   1.460       .  S
C1657      C1830   1.453       .  S
N1658      N1659   1.307       .  A
N1658      N1664   1.324       .  A
N1659      C1666   1.333       .  A
N1660      N1662   1.322       .  A
N1660      N1661   1.309       .  A
N1660     Mn1676   2.203       .  S
N1661      C1667   1.344       .  A
N1662      N1663   1.324       .  A
N1662     Mn1687   2.193       .  S
N1663      C1667   1.353       .  A
N1664      N1665   1.331       .  A
N1665      C1666   1.366       .  A
C1666      C1818   1.469       .  S
C1667      C1813   1.464       .  S
N1668      N1674   1.312       .  A
N1668      N1669   1.323       .  A
N1669      C1677   1.357       .  A
N1670      N1671   1.347       .  A
N1670      N1672   1.319       .  A
N1671      C1678   1.374       .  A
N1672      N1673   1.328       .  A
N1672     Mn1698   2.255       .  S
N1673      C1678   1.360       .  A
N1674      N1675   1.320       .  A
N1674     Mn1676   2.195       .  S
N1675      C1677   1.352       .  A
Mn1676    Cl1700   2.591       .  S
C1677      C1801   1.479       .  S
N1679      N1680   1.328       .  A
N1679      N1685   1.319       .  A
N1679     Mn1687   2.255       .  S
N1680      C1688   1.360       .  A
N1681      N1683   1.312   1_556  A
N1681      N1682   1.320       .  A
N1681     Mn1699   2.196       .  S
N1682      C1689   1.352       .  A
N1683      N1684   1.323       .  A
N1684      C1689   1.357   1_554  A
N1685      N1686   1.347       .  A
N1686      C1688   1.374       .  A
Mn1687    Cl1700   2.540       .  S
C1689      C1805   1.479       .  S
N1690      N1691   1.324       .  A
N1690      N1696   1.322       .  A
N1690     Mn1698   2.193       .  S
N1691      C1701   1.354       .  A
N1692      N1693   1.330       .  A
N1692      N1694   1.324       .  A
N1693      C1702   1.366       .  A
N1694      N1695   1.308       .  A
N1695      C1702   1.334       .  A
N1696      N1697   1.308       .  A
N1696     Mn1699   2.200       .  S
N1697      C1701   1.344       .  A
C1701      C1810   1.463       .  S
C1702      C1821   1.469       .  S
N1703      N1704   1.320       .  A
N1703      N1709   1.319       .  A
N1703     Mn1732   2.252       .  S
N1704      C1711   1.355       .  A
N1705      N1707   1.316       .  A
N1705     Mn1721   2.241   1_455  S
N1706      C1712   1.359       .  A
N1707     Mn1732   2.120   1_455  S
N1708      C1712   1.336       .  A
N1709      N1710   1.320       .  A
N1709     Mn1721   2.153       .  S
N1710      C1711   1.341       .  A
C1711      C1814   1.471       .  S
C1712      C1833   1.462       .  S
N1713      N1719   1.313       .  A
N1713      N1714   1.320       .  A
N1713     Mn1743   2.164       .  S
N1714      C1722   1.342       .  A
N1715      N1716   1.337       .  A
N1715      N1717   1.315       .  A
N1715     Mn1721   2.276       .  S
N1716      C1723   1.368       .  A
N1717      N1718   1.338       .  A
N1718      C1723   1.370       .  A
N1719      N1720   1.315       .  A
N1720      C1722   1.346       .  A
Mn1721    Cl1745   2.554   1_655  S
C1722      C1797   1.457       .  S
N1724      N1725   1.338       .  A
N1724      N1730   1.315       .  A
N1725      C1733   1.371       .  A
N1726      N1728   1.314       .  A
N1726      N1727   1.316       .  A
N1727      C1734   1.346       .  A
N1728      N1729   1.320       .  A
N1728     Mn1732   2.165       .  S
N1729      C1734   1.342       .  A
N1730      N1731   1.337       .  A
N1730     Mn1744   2.273       .  S
N1731      C1733   1.367       .  A
Mn1732    Cl1745   2.531   1_655  S
C1734      C1793   1.458       .  S
N1735      N1741   1.316       .  A
N1735     Mn1743   2.119       .  S
N1736      C1746   1.336       .  A
N1737      N1738   1.320       .  A
N1737      N1739   1.319       .  A
N1737     Mn1744   2.150       .  S
N1738      C1747   1.340       .  A
N1739      N1740   1.320       .  A
N1739     Mn1743   2.253       .  S
N1740      C1747   1.356       .  A
N1741     Mn1744   2.240       .  S
N1742      C1746   1.359       .  A
C1746      C1837   1.462       .  S
C1747      C1809   1.470       .  S
N1748      N1749   1.331       .  A
N1748      N1754   1.312       .  A
N1748     Mn1777   2.257       .  S
N1749      C1756   1.366       .  A
N1750      N1752   1.312       .  A
N1750      N1751   1.318       .  A
N1750     Mn1766   2.196       .  S
N1751      C1757   1.351       .  A
N1752      N1753   1.325       .  A
N1753      C1757   1.357       .  A
N1754      N1755   1.338       .  A
N1755      C1756   1.376       .  A
C1757      C1806   1.474       .  S
N1758      N1764   1.321       .  A
N1758      N1759   1.311       .  A
N1758     Mn1788   2.168       .  S
N1759      C1767   1.345       .  A
N1760      N1761   1.319       .  A
N1760      N1762   1.320       .  A
N1761      C1768   1.349       .  A
N1762      N1763   1.316       .  A
N1763      C1768   1.347       .  A
N1764      N1765   1.319       .  A
N1764     Mn1766   2.230       .  S
N1765      C1767   1.354       .  A
Mn1766    Cl1790   2.572       .  S
C1767      C1794   1.461       .  S
C1768      C1829   1.453       .  S
N1769      N1770   1.316       .  A
N1769      N1775   1.320       .  A
N1770      C1778   1.347       .  A
N1771      N1773   1.321       .  A
N1771      N1772   1.320       .  A
N1771     Mn1789   2.230       .  S
N1772      C1779   1.354       .  A
N1773      N1774   1.311       .  A
N1773     Mn1777   2.168       .  S
N1774      C1779   1.345       .  A
N1775      N1776   1.318       .  A
N1776      C1778   1.349       .  A
C1778      C1826   1.452       .  S
C1779      C1798   1.462       .  S
N1780      N1781   1.325       .  A
N1780      N1786   1.312   1_545  A
N1781      C1791   1.357   1_545  A
N1782      N1783   1.338       .  A
N1782      N1784   1.312       .  A
N1783      C1792   1.376       .  A
N1784      N1785   1.330       .  A
N1784     Mn1788   2.255       .  S
N1785      C1792   1.366       .  A
N1786      N1787   1.318       .  A
N1786     Mn1789   2.199       .  S
N1787      C1791   1.351       .  A
Mn1788    Cl1790   2.523       .  S
C1791      C1802   1.475       .  S
C1793      C1794   1.349       .  D
C1793      H1795   1.086       .  S
C1794      H1796   1.085       .  S
C1797      C1798   1.349       .  D
C1797      H1799   1.085       .  S
C1798      H1800   1.085       .  S
C1801      C1802   1.342       .  D
C1801      H1803   1.087       .  S
C1802      H1804   1.087       .  S
C1805      C1806   1.342       .  D
C1805      H1807   1.087       .  S
C1806      H1808   1.087       .  S
C1809      C1810   1.340       .  D
C1809      H1811   1.087       .  S
C1810      H1812   1.086       .  S
C1813      C1814   1.340       .  D
C1813      H1815   1.086       .  S
C1814      H1816   1.086       .  S
C1817      C1818   1.358       .  D
C1817      H1819   1.084       .  S
C1818      H1820   1.078       .  S
C1821      C1822   1.357       .  D
C1821      H1823   1.079       .  S
C1822      H1824   1.085       .  S
C1826      H1828   1.089       .  S
C1829      H1831   1.089       .  S
C1830      H1832   1.086       .  S
C1833      H1835   1.088       .  S
C1834      H1836   1.088       .  S
