geometry optimzed in LAMMPS
_audit_creation_date              2020-12-01 
_audit_creation_method            'lammps2cif' 
_symmetry_space_group_name_H-M    'P1' 
_symmetry_Int_Tables_number       1 
_symmetry_cell_setting            triclinic 
loop_ 
_symmetry_equiv_pos_as_xyz 
  x,y,z 
_cell_length_a                    36.61989083 
_cell_length_b                    38.236677249335024 
_cell_length_c                    37.222739729288755 
_cell_angle_alpha                 91.30418290932866 
_cell_angle_beta                  90.08337559965084 
_cell_angle_gamma                 90.35748712679232 
loop_ 
_atom_site_label 
_atom_site_type_symbol 
_atom_site_fract_x 
_atom_site_fract_y 
_atom_site_fract_z 
_atom_site_charge 
C1          C  0.41665455  0.42418629  0.06737831     0.43000
N2          N  0.45057598  0.46844130  0.05530859     0.01900
C3          C  0.46038276  0.06975740  0.40555403    -0.06000
H4          H  0.47316950  0.42629745  0.38044889     0.07400
C5          C  0.09219762  0.43396900  0.46668053    -0.06300
Co6        Co  0.43133519  0.50032874  0.48877766     0.74200
N7          N  0.46235752  0.45816850  0.42788084    -0.25500
Co8        Co  0.00622297  0.49848407  0.43827387     0.74100
C9          C  0.08091456  0.41636615  0.43316951     0.43100
N10         N  0.05971492  0.46577607  0.04663515     0.01500
N11         N  0.04510116  0.45955513  0.44424755     0.01600
N12         N  0.41265986  0.06671460  0.44363242    -0.46300
H13         H  0.38293771  0.43085963  0.01542765     0.07400
N14         N  0.43387793  0.46055305  0.44945861     0.01900
N15         N  0.04017155  0.03953516  0.43969008     0.01700
C16         C  0.07677575  0.08063261  0.42596555     0.43300
N17         N  0.03153949  0.46640493  0.06863920    -0.24900
C18         C  0.40210839  0.06210423  0.03851575    -0.05900
N19         N  0.44469596  0.44426183  0.07944357    -0.46000
N20         N  0.04782481  0.06184861  0.41417273    -0.46300
C21         C  0.41127282  0.07896731  0.07272178     0.43000
N22         N  0.43700596  0.04221279  0.45014311     0.01900
N23         N  0.03310292  0.04488622  0.07020273    -0.25000
N24         N  0.42774100  0.46598425  0.02789223    -0.25500
N25         N  0.06177884  0.04387776  0.04874103     0.01600
H26         H  0.01862684  0.07792380  0.11549593     0.07400
H27         H  0.10995349  0.07481011  0.47809292     0.07500
N28         N  0.46512381  0.04306181  0.42800805    -0.25500
N29         N  0.06851123  0.46037847  0.47124799    -0.25100
N30         N  0.44933084  0.03766612  0.06220238     0.01900
C31         C  0.41929427  0.41979796  0.41139063     0.43300
C32         C  0.03512044  0.44005889  0.09149785    -0.06400
N33         N  0.06277850  0.04220320  0.46727020    -0.25100
H34         H  0.11551209  0.42896022  0.48363088     0.07500
N35         N  0.40714498  0.43857082  0.44008636    -0.46300
H36         H  0.01668272  0.43430297  0.11328543     0.07500
C37         C  0.07270105  0.08739960  0.08550989     0.43200
C38         C  0.40519520  0.43869420  0.03301030    -0.05900
Co39       Co  0.48992466  0.99971916  0.06695343     0.73800
N40         N  0.08289591  0.44027783  0.05322214    -0.46100
C41         C  0.42581309  0.08591977  0.41649224     0.43400
N42         N  0.44028770  0.06207414  0.08638736    -0.46000
Co43       Co  0.06655061  0.00262943  0.01017050     0.73900
C44         C  0.08682455  0.06787656  0.46122727    -0.06400
C45         C  0.45579350  0.43284915  0.40305486    -0.05900
N46         N  0.42709287  0.03693155  0.03423849    -0.25500
N47         N  0.05187501  0.43405570  0.42076301    -0.46200
H48         H  0.47816105  0.07625783  0.38348006     0.07400
C49         C  0.03732779  0.07152557  0.09392111    -0.06300
Cl50       Cl  0.99954435  0.00208983  0.00251681    -0.49300
C51         C  0.06906079  0.42245792  0.08090826     0.43200
H52         H  0.37942498  0.06686497  0.02068269     0.07400
N53         N  0.08631920  0.06860420  0.05722534    -0.46100
C54         C  0.16600433  0.17567563  0.34004514    -0.01900
C55         C  0.16672653  0.33034410  0.33238070    -0.01900
C56         C  0.16474358  0.33984244  0.17359443    -0.01900
C57         C  0.16057083  0.18332803  0.18069813    -0.01900
C58         C  0.32971203  0.16740950  0.32133583    -0.01900
C59         C  0.32516734  0.17563366  0.16433506    -0.01900
C60         C  0.33034813  0.33131263  0.16029670    -0.01900
C61         C  0.33119975  0.32616724  0.31670842    -0.01900
C62         C  0.37056769  0.33149678  0.22093023    -0.11700
C63         C  0.33921161  0.34246920  0.20179551     0.05300
C64         C  0.32000959  0.36856343  0.22240019    -0.07000
C65         C  0.31719262  0.36409678  0.26006512    -0.07700
C66         C  0.34082999  0.34114266  0.27834192    -0.02300
C67         C  0.37281800  0.33360146  0.25869434     0.04500
N68         N  0.40743120  0.32917224  0.27582656     0.67000
H69         H  0.39524535  0.32545379  0.20741048     0.15900
H70         H  0.29817369  0.38008826  0.27524673     0.15700
N71         N  0.32205136  0.40440994  0.21172404     0.74800
O72         O  0.42853658  0.30525377  0.26480957    -0.38700
O73         O  0.42076869  0.35453036  0.29384418    -0.38600
O74         O  0.29854278  0.42608282  0.22275997    -0.39300
O75         O  0.35267075  0.41636613  0.20223204    -0.39400
C76         C  0.36286144  0.23455803  0.17686354    -0.11700
C77         C  0.33848925  0.21458544  0.15517216     0.05300
C78         C  0.32499463  0.23290821  0.12464528    -0.07000
C79         C  0.32776561  0.26989618  0.12341583    -0.07700
C80         C  0.34120492  0.29022096  0.15290137    -0.02300
C81         C  0.36849202  0.27080193  0.17148836     0.04500
N82         N  0.40625417  0.28082171  0.16856532     0.67000
H83         H  0.37957091  0.22208656  0.19628571     0.15900
H84         H  0.31351621  0.28197894  0.10194831     0.15700
N85         N  0.30607647  0.21508887  0.09583833     0.74800
O86         O  0.42940136  0.26964547  0.19066645    -0.38700
O87         O  0.41745533  0.29574776  0.14072344    -0.38600
O88         O  0.27197822  0.21878613  0.09307406    -0.39300
O89         O  0.32382485  0.20609427  0.06814588    -0.39400
C90         C  0.36839756  0.15678855  0.26065583    -0.11700
C91         C  0.33580455  0.15300350  0.28075784     0.05300
C92         C  0.30792826  0.13692420  0.25968633    -0.07000
C93         C  0.30411940  0.14757606  0.22413299    -0.07700
C94         C  0.33276982  0.16351532  0.20461218    -0.02300
C95         C  0.36735393  0.16135259  0.22245060     0.04500
N96         N  0.40059814  0.15817609  0.20233699     0.67000
H97         H  0.39438352  0.15532357  0.27424158     0.15900
H98         H  0.28001477  0.13780979  0.21070480     0.15700
N99         N  0.30011526  0.10051786  0.26403531     0.74800
O100        O  0.42701150  0.17859847  0.20910850    -0.38700
O101        O  0.40711732  0.12956529  0.18613832    -0.38600
O102        O  0.27019536  0.08821195  0.25237578    -0.39300
O103        O  0.32708043  0.08019087  0.26371998    -0.39400
C104        C  0.32466128  0.22967356  0.35316191    -0.11700
C105        C  0.34038107  0.20856520  0.32528267     0.05300
C106        C  0.36199914  0.22799885  0.30076107    -0.07000
C107        C  0.35524563  0.26374592  0.29598966    -0.07700
C108        C  0.33717718  0.28514244  0.32162083    -0.02300
C109        C  0.32394789  0.26694066  0.35234475     0.04500
N110        N  0.30813970  0.28556202  0.38236141     0.67000
H111        H  0.31210359  0.21695564  0.37569213     0.15900
H112        H  0.36711750  0.27412412  0.27252070     0.15700
N113        N  0.39764489  0.21672855  0.28977359     0.74800
O114        O  0.27482152  0.28161488  0.38958727    -0.38700
O115        O  0.32798430  0.30282952  0.40413144    -0.38600
O116        O  0.41055675  0.22693229  0.26037087    -0.39300
O117        O  0.41956563  0.20556758  0.31296660    -0.39400
C118        C  0.25913441  0.14935792  0.14765930    -0.11700
C119        C  0.28190606  0.17743398  0.16029844     0.05300
C120        C  0.26240182  0.20693684  0.17398111    -0.07000
C121        C  0.22504701  0.20891482  0.16826909    -0.07700
C122        C  0.20236492  0.17940172  0.16812482    -0.02300
C123        C  0.22078009  0.14830052  0.15584242     0.04500
N124        N  0.20149060  0.11605446  0.14992013     0.67000
H125        H  0.27093376  0.12721710  0.13396898     0.15900
H126        H  0.21461734  0.23450925  0.16759610     0.15700
N127        N  0.27861998  0.23500664  0.19508014     0.74800
O128        O  0.19417966  0.10618937  0.11813109    -0.38700
O129        O  0.20141944  0.09363621  0.17426842    -0.38600
O130        O  0.30408617  0.22910108  0.21674742    -0.39300
O131        O  0.26062977  0.26245461  0.20039803    -0.39400
C132        C  0.17485335  0.28098738  0.19863041    -0.11700
C133        C  0.15549716  0.29905880  0.17266276     0.05300
C134        C  0.12906782  0.27844328  0.15291899    -0.07000
C135        C  0.12859556  0.24104929  0.15610750    -0.07700
C136        C  0.15040522  0.22391566  0.18191346    -0.02300
C137        C  0.16679778  0.24720780  0.20774303     0.04500
N138        N  0.17857151  0.23781891  0.24253295     0.67000
H139        H  0.19418928  0.29486484  0.21568413     0.15900
H140        H  0.11007193  0.22588199  0.13932019     0.15700
N141        N  0.10233215  0.29396346  0.13050860     0.74800
O142        O  0.21205922  0.24092623  0.24904948    -0.38700
O143        O  0.15696173  0.24466747  0.26799899    -0.38600
O144        O  0.10058699  0.28500232  0.09770595    -0.39300
O145        O  0.07550708  0.30935098  0.14490485    -0.39400
C146        C  0.22799131  0.37295504  0.15854759    -0.11700
C147        C  0.20637529  0.34244772  0.15969068     0.05300
C148        C  0.22439178  0.31359845  0.14365705    -0.07000
C149        C  0.26216223  0.31035102  0.14745612    -0.07700
C150        C  0.28661597  0.33876882  0.15419143    -0.02300
C151        C  0.26719116  0.37232512  0.15352896     0.04500
N152        N  0.28308402  0.40488160  0.14146813     0.67000
H153        H  0.21393503  0.39770950  0.15965845     0.15900
H154        H  0.27026100  0.28423699  0.14268123     0.15700
N155        N  0.20846538  0.29603364  0.11292063     0.74800
O156        O  0.26272806  0.42751442  0.12764159    -0.38700
O157        O  0.31685954  0.41052361  0.14084311    -0.38600
O158        O  0.21391298  0.30888424  0.08242273    -0.39300
O159        O  0.19944994  0.26427056  0.11429681    -0.39400
C160        C  0.18167775  0.36376619  0.27485030    -0.11700
C161        C  0.15775479  0.33983295  0.29180282     0.05300
C162        C  0.12820720  0.32813025  0.26986933    -0.07000
C163        C  0.12877844  0.33388242  0.23260908    -0.07700
C164        C  0.15883555  0.34979520  0.21487965    -0.02300
C165        C  0.18306060  0.36848925  0.23789597     0.04500
N166        N  0.20835290  0.39399390  0.22601354     0.67000
H167        H  0.20097459  0.37906343  0.29082016     0.15900
H168        H  0.10631908  0.32342022  0.21660858     0.15700
N169        N  0.09545026  0.31411084  0.28414769     0.74800
O170        O  0.19726817  0.42438002  0.21964861    -0.38700
O171        O  0.24126900  0.39027492  0.23460917    -0.38600
O172        O  0.07360266  0.33486215  0.29969467    -0.39300
O173        O  0.08303474  0.28584262  0.27070935    -0.39400
C174        C  0.22700572  0.31044493  0.30706765    -0.11700
C175        C  0.21019119  0.33211864  0.33315865     0.05300
C176        C  0.23411913  0.35249300  0.35551127    -0.07000
C177        C  0.27251173  0.34922581  0.35149746    -0.07700
C178        C  0.28859426  0.33031943  0.32219157    -0.02300
C179        C  0.26357362  0.31332510  0.29809148     0.04500
N180        N  0.27178523  0.30574196  0.26110951     0.67000
H181        H  0.20994968  0.29465097  0.28928361     0.15900
H182        H  0.28927950  0.36196607  0.37177034     0.15700
N183        N  0.22088965  0.37614019  0.38261190     0.74800
O184        O  0.30023471  0.28985023  0.25160173    -0.38700
O185        O  0.25246972  0.31961942  0.23731702    -0.38600
O186        O  0.22695070  0.36992231  0.41523214    -0.39300
O187        O  0.21188302  0.40662623  0.37398100    -0.39400
C188        C  0.12546812  0.17914532  0.28003887    -0.11700
C189        C  0.15703512  0.16766367  0.29809197     0.05300
C190        C  0.17972343  0.14596192  0.27592391    -0.07000
C191        C  0.18187862  0.15138674  0.23871838    -0.07700
C192        C  0.15550790  0.17132323  0.22087698    -0.02300
C193        C  0.12401033  0.18030812  0.24199062     0.04500
N194        N  0.09107150  0.19228645  0.22568780     0.67000
H195        H  0.10171147  0.18745485  0.29466429     0.15900
H196        H  0.20338773  0.13839574  0.22408593     0.15700
N197        N  0.19448199  0.11431303  0.28950766     0.74800
O198        O  0.08426106  0.22458095  0.22614865    -0.38700
O199        O  0.06495270  0.17095281  0.22117715    -0.38600
O200        O  0.17736692  0.08597370  0.28385326    -0.39300
O201        O  0.22728863  0.11309636  0.29931649    -0.39400
C202        C  0.22719664  0.19100357  0.31878432    -0.11700
C203        C  0.20854598  0.17052391  0.34307843     0.05300
C204        C  0.23121895  0.14988808  0.36561360    -0.07000
C205        C  0.27043078  0.15146713  0.36149641    -0.07700
C206        C  0.28720731  0.16663936  0.33075207    -0.02300
C207        C  0.26320662  0.18650704  0.31012161     0.04500
N208        N  0.27389265  0.20341129  0.27894769     0.67000
H209        H  0.21214654  0.20950834  0.30326545     0.15900
H210        H  0.28723642  0.13943370  0.38158530     0.15700
N211        N  0.21600517  0.12737479  0.39185744     0.74800
O212        O  0.28131344  0.23533207  0.28275367    -0.38700
O213        O  0.25751166  0.19322297  0.25081510    -0.38600
O214        O  0.19910042  0.10010650  0.38147793    -0.39300
O215        O  0.22735756  0.12954343  0.42385747    -0.39400
C216        C  0.12653545  0.23344468  0.34287139    -0.11700
C217        C  0.15948191  0.21591803  0.35041263     0.05300
C218        C  0.18591428  0.23792875  0.36857228    -0.07000
C219        C  0.18470462  0.27383292  0.36453559    -0.07700
C220        C  0.15778816  0.29086130  0.34421308    -0.02300
C221        C  0.12449110  0.27079656  0.34246620     0.04500
N222        N  0.08948196  0.28605780  0.35023899     0.67000
H223        H  0.10159938  0.21834765  0.34166131     0.15900
H224        H  0.20561756  0.28869755  0.37866846     0.15700
N225        N  0.21111480  0.22611381  0.39529798     0.74800
O226        O  0.06069948  0.27049616  0.33980647    -0.38700
O227        O  0.08673267  0.30907984  0.37482476    -0.38600
O228        O  0.24368421  0.22059644  0.38623313    -0.39300
O229        O  0.20596281  0.23660374  0.42728150    -0.39400
C230        C  0.12294136  0.12281116  0.34728854    -0.11700
C231        C  0.14201148  0.15147693  0.36372226     0.05300
C232        C  0.13707880  0.15620271  0.40165503    -0.07000
C233        C  0.11600208  0.13253626  0.42095239    -0.07700
C234        C  0.09796953  0.10471345  0.40398957    -0.02300
C235        C  0.10107699  0.10009230  0.36670723     0.04500
N236        N  0.08346523  0.07152430  0.34810581     0.67000
H237        H  0.12458415  0.11685088  0.31893862     0.15900
H238        H  0.11285279  0.13667961  0.44970229     0.15700
N239        N  0.15125671  0.18527984  0.42182506     0.74800
O240        O  0.05395630  0.07663609  0.33153908    -0.38700
O241        O  0.10061696  0.04339615  0.34258631    -0.38600
O242        O  0.13208783  0.21259173  0.42379447    -0.39300
O243        O  0.17233713  0.17898992  0.44773393    -0.39400
C244        C  0.09096096  0.40641599  0.14043027    -0.11700
C245        C  0.09161359  0.40006378  0.10367507     0.05300
C246        C  0.11637485  0.37552784  0.08954895    -0.07000
C247        C  0.13970609  0.35754300  0.11261027    -0.07700
C248        C  0.13903609  0.36277821  0.15027276    -0.02300
C249        C  0.11433934  0.38936667  0.16371720     0.04500
N250        N  0.11246758  0.40171907  0.20019181     0.67000
H251        H  0.07305005  0.42639743  0.15149443     0.15900
H252        H  0.15720678  0.33803062  0.10083319     0.15700
N253        N  0.11615658  0.36658427  0.05213508     0.74800
O254        O  0.12752827  0.43068126  0.20790194    -0.38700
O255        O  0.08504088  0.39289710  0.21845929    -0.38600
O256        O  0.14341607  0.37387846  0.03294701    -0.39300
O257        O  0.09175221  0.34613332  0.03990845    -0.39400
C258        C  0.36284448  0.08941994  0.11780087    -0.11700
C259        C  0.38776880  0.10288806  0.09347953     0.05300
C260        C  0.39092955  0.13895919  0.09018889    -0.07000
C261        C  0.37058969  0.16120453  0.11250778    -0.07700
C262        C  0.34466146  0.14880786  0.13792814    -0.02300
C263        C  0.34165060  0.11134988  0.14014712     0.04500
N264        N  0.32274247  0.09429110  0.16842703     0.67000
H265        H  0.36105990  0.06131587  0.12082365     0.15900
H266        H  0.37708305  0.18850684  0.10982843     0.15700
N267        N  0.41543356  0.15359633  0.06463749     0.74800
O268        O  0.29422080  0.07693739  0.16084258    -0.38700
O269        O  0.34181806  0.08429810  0.19441746    -0.38600
O270        O  0.40314225  0.16427213  0.03518417    -0.39300
O271        O  0.44777988  0.16108719  0.07380335    -0.39400
C272        C  0.11533606  0.13930234  0.09421074    -0.11700
C273        C  0.09414131  0.11246229  0.10898429     0.05300
C274        C  0.09378543  0.10963654  0.14657475    -0.07000
C275        C  0.11453404  0.13253005  0.16828222    -0.07700
C276        C  0.13576642  0.16036453  0.15448154    -0.02300
C277        C  0.13585719  0.16313341  0.11610623     0.04500
N278        N  0.15799425  0.18845910  0.09832076     0.67000
H279        H  0.11624066  0.14170409  0.06527503     0.15900
H280        H  0.11443942  0.12666105  0.19645075     0.15700
N281        N  0.07427195  0.08202087  0.16350964     0.74800
O282        O  0.19036382  0.18058042  0.09008241    -0.38700
O283        O  0.14241668  0.21195247  0.08074043    -0.38600
O284        O  0.08846524  0.05210614  0.16505593    -0.39300
O285        O  0.04693912  0.08918656  0.18287593    -0.39400
C286        C  0.40598891  0.36058158  0.38564447    -0.11700
C287        C  0.39661174  0.39585407  0.38878021     0.05300
C288        C  0.36707093  0.40809280  0.36872748    -0.07000
C289        C  0.34763510  0.38510111  0.34588449    -0.07700
C290        C  0.35488074  0.34874139  0.34373315    -0.02300
C291        C  0.38598313  0.33686806  0.36370774     0.04500
N292        N  0.39986293  0.30191576  0.36092752     0.67000
H293        H  0.42954984  0.35127857  0.40019369     0.15900
H294        H  0.32585165  0.39595671  0.33006137     0.15700
N295        N  0.35708228  0.44416508  0.37033794     0.74800
O296        O  0.42591589  0.29578568  0.33964718    -0.38700
O297        O  0.39606011  0.28211403  0.38733324    -0.38600
O298        O  0.36839783  0.46441447  0.34642299    -0.39300
O299        O  0.33130159  0.45382870  0.39063290    -0.39400
C300        C  0.37195114  0.09032694  0.37752070    -0.11700
C301        C  0.40175840  0.10685417  0.39357756     0.05300
C302        C  0.40709769  0.14251998  0.38827892    -0.07000
C303        C  0.38207958  0.16114880  0.36758592    -0.07700
C304        C  0.35285986  0.14470381  0.34809701    -0.02300
C305        C  0.34831790  0.10748295  0.35398178     0.04500
N306        N  0.32186180  0.08484743  0.33652081     0.67000
H307        H  0.36766470  0.06273677  0.38239949     0.15900
H308        H  0.38690565  0.18890495  0.36678770     0.15700
N309        N  0.43788376  0.16037409  0.40377970     0.74800
O310        O  0.33300784  0.05544163  0.32503960    -0.38700
O311        O  0.28888125  0.08626320  0.34584489    -0.38600
O312        O  0.46718175  0.16236265  0.38611355    -0.39300
O313        O  0.43383331  0.17926977  0.43169517    -0.39400
C314        C  0.14793814  0.34923314  0.39591263    -0.11700
C315        C  0.14801871  0.35681325  0.35885852     0.05300
C316        C  0.12812042  0.38724707  0.34854398    -0.07000
C317        C  0.10606631  0.40482294  0.37329908    -0.07700
C318        C  0.10428952  0.39523524  0.40905998    -0.02300
C319        C  0.12635208  0.36785518  0.42072946     0.04500
N320        N  0.12511722  0.35668448  0.45698981     0.67000
H321        H  0.16342973  0.32753203  0.40579664     0.15900
H322        H  0.09128136  0.42758913  0.36449193     0.15700
N323        N  0.13244883  0.40401334  0.31491723     0.74800
O324        O  0.09734665  0.34020113  0.46759706    -0.38700
O325        O  0.15439556  0.35528464  0.47478926    -0.38600
O326        O  0.10551206  0.40498245  0.29379328    -0.39300
O327        O  0.15699681  0.42715926  0.31240525    -0.39400
C328        C  0.36824001  0.37844724  0.07477209    -0.11700
C329        C  0.39775495  0.39746871  0.08918381     0.05300
C330        C  0.40736597  0.39213581  0.12515690    -0.07000
C331        C  0.38606797  0.37052412  0.14636603    -0.07700
C332        C  0.35451137  0.35253538  0.13348440    -0.02300
C333        C  0.34678787  0.35609814  0.09582286     0.04500
N334        N  0.31618300  0.33988672  0.07807726     0.67000
H335        H  0.36074568  0.38167824  0.04690077     0.15900
H336        H  0.39483917  0.36971434  0.17367357     0.15700
N337        N  0.43817084  0.40937627  0.14146886     0.74800
O338        O  0.28593680  0.35547368  0.07874746    -0.38700
O339        O  0.32247874  0.31936777  0.05177705    -0.38600
O340        O  0.43327672  0.43568447  0.16194820    -0.39300
O341        O  0.46871785  0.39428955  0.14137231    -0.39400
C342        C  0.41091630  0.42451321  0.57026370     0.43000
N343        N  0.44961716  0.46451651  0.55687919     0.01900
C344        C  0.46249710  0.06335749  0.91047005    -0.06000
H345        H  0.47722840  0.43062451  0.87966677     0.07400
C346        C  0.09323269  0.43574995  0.96548482    -0.06300
Co347      Co  0.42958119  0.50265618  0.98713442     0.74200
N348        N  0.46380967  0.46259811  0.92635760    -0.25500
Co349      Co  0.00595267  0.49797180  0.93430533     0.74100
C350        C  0.08354351  0.41644042  0.93253606     0.43100
N351        N  0.06102483  0.46296133  0.55004096     0.01500
N352        N  0.04621393  0.45945892  0.94074861     0.01600
N353        N  0.41319266  0.06169268  0.94675502    -0.46300
H354        H  0.37749483  0.43370067  0.51865964     0.07400
N355        N  0.43529794  0.46322185  0.94798163     0.01900
N356        N  0.04841683  0.03519093  0.94050297     0.01700
C357        C  0.08801238  0.07383673  0.92678863     0.43300
N358        N  0.03266291  0.46364581  0.57175111    -0.24900
C359        C  0.40197705  0.06648897  0.53336265    -0.05900
N360        N  0.44119878  0.44165236  0.58158262    -0.46000
N361        N  0.05834767  0.05626937  0.91445992    -0.46300
C362        C  0.41099174  0.08416513  0.56729345     0.43000
N363        N  0.43697067  0.03708327  0.95488272     0.01900
N364        N  0.02847080  0.04461306  0.57035536    -0.25000
N365        N  0.42642768  0.46395856  0.52967995    -0.25500
N366        N  0.05639534  0.04559722  0.54801824     0.01600
H367        H  0.01469552  0.07435987  0.61813144     0.07400
H368        H  0.11928514  0.06770996  0.97981080     0.07500
N369        N  0.46576112  0.03715045  0.93358208    -0.25500
N370        N  0.06881821  0.46174394  0.96838687    -0.25100
N371        N  0.44979321  0.04310851  0.55699481     0.01900
C372        C  0.42406740  0.42080970  0.91086236     0.43300
C373        C  0.03601425  0.43782391  0.59510182    -0.06400
N374        N  0.07051451  0.03741322  0.96855318    -0.25100
H375        H  0.11600116  0.43173807  0.98342706     0.07500
N376        N  0.41050443  0.43911585  0.93919057    -0.46300
H377        H  0.01734888  0.43254694  0.61683197     0.07500
C378        C  0.06739355  0.08696467  0.58711056     0.43200
C379        C  0.40092242  0.43928658  0.53560214    -0.05900
Co380      Co  0.49165430  0.00614742  0.56156808     0.73800
N381        N  0.08452340  0.43793503  0.55762881    -0.46100
C382        C  0.42792561  0.08002703  0.91963694     0.43400
N383        N  0.44037724  0.06769350  0.58093837    -0.46000
Co384      Co  0.06138519  0.00608384  0.50789404     0.73900
C385        C  0.09626435  0.06154346  0.96251582    -0.06400
C386        C  0.45931966  0.43640478  0.90207631    -0.05900
N387        N  0.42744996  0.04167590  0.52915157    -0.25500
N388        N  0.05481053  0.43344038  0.91808562    -0.46200
H389        H  0.48104048  0.06885848  0.88869929     0.07400
C390        C  0.03277700  0.06982259  0.59560703    -0.06300
Cl391      Cl  0.99459065  0.00360506  0.50152033    -0.49300
C392        C  0.07035970  0.42064086  0.58563593     0.43200
H393        H  0.37920948  0.07077144  0.51549281     0.07400
N394        N  0.08059617  0.07031089  0.55731210    -0.46100
C395        C  0.17682971  0.16800016  0.83967133    -0.01900
C396        C  0.17447024  0.32620175  0.83944595    -0.01900
C397        C  0.15897323  0.33553887  0.68192057    -0.01900
C398        C  0.15796336  0.17921949  0.68270191    -0.01900
C399        C  0.34086879  0.16433493  0.81887219    -0.01900
C400        C  0.32063392  0.17566009  0.66114833    -0.01900
C401        C  0.32339805  0.33220624  0.66332251    -0.01900
C402        C  0.33900933  0.32247870  0.81932232    -0.01900
C403        C  0.36765944  0.32866925  0.72005992    -0.11700
C404        C  0.33472203  0.34089085  0.70463111     0.05300
C405        C  0.31827049  0.36695131  0.72785897    -0.07000
C406        C  0.32022190  0.36214131  0.76549721    -0.07700
C407        C  0.34544441  0.33859079  0.78067644    -0.02300
C408        C  0.37461994  0.33073450  0.75727688     0.04500
N409        N  0.41156937  0.32901793  0.76980256     0.67000
H410        H  0.39050434  0.32293234  0.70346215     0.15900
H411        H  0.30230823  0.37727464  0.78278307     0.15700
N412        N  0.31280161  0.40248917  0.71673766     0.74800
O413        O  0.43328998  0.30729037  0.75548074    -0.38700
O414        O  0.42466494  0.35499056  0.78702723    -0.38600
O415        O  0.29846345  0.42438525  0.73830234    -0.39300
O416        O  0.33254505  0.41470195  0.69232724    -0.39400
C417        C  0.35645471  0.23591483  0.67337855    -0.11700
C418        C  0.33082788  0.21576379  0.65313290     0.05300
C419        C  0.31358512  0.23470639  0.62483562    -0.07000
C420        C  0.31325835  0.27178180  0.62608298    -0.07700
C421        C  0.33312178  0.29174401  0.65227209    -0.02300
C422        C  0.36233803  0.27191429  0.66656229     0.04500
N423        N  0.39940902  0.28207331  0.65892228     0.67000
H424        H  0.37506943  0.22359497  0.69115610     0.15900
H425        H  0.29372551  0.28408087  0.60903576     0.15700
N426        N  0.29389766  0.21719956  0.59626637     0.74800
O427        O  0.42559681  0.26896247  0.67601910    -0.38700
O428        O  0.40635722  0.30052787  0.63203419    -0.38600
O429        O  0.26034984  0.22337142  0.59215256    -0.39300
O430        O  0.31150501  0.20460157  0.56996036    -0.39400
C431        C  0.37313651  0.15722398  0.75360881    -0.11700
C432        C  0.34327006  0.15173968  0.77693247     0.05300
C433        C  0.31330140  0.13630777  0.75777054    -0.07000
C434        C  0.30453811  0.14973482  0.72394142    -0.07700
C435        C  0.33143327  0.16437341  0.70119620    -0.02300
C436        C  0.36785861  0.16234612  0.71578746     0.04500
N437        N  0.39923638  0.16059922  0.69278384     0.67000
H438        H  0.40047913  0.15523406  0.76407343     0.15900
H439        H  0.27866205  0.14127523  0.71287331     0.15700
N440        N  0.30928086  0.09895465  0.75865254     0.74800
O441        O  0.42509542  0.18216661  0.69747373    -0.38700
O442        O  0.40607981  0.13200245  0.67670457    -0.38600
O443        O  0.28051693  0.08471560  0.74638206    -0.39300
O444        O  0.33806510  0.08101363  0.75764185    -0.39400
C445        C  0.33833354  0.22505727  0.85478070    -0.11700
C446        C  0.35326880  0.20499985  0.82559516     0.05300
C447        C  0.37485491  0.22548093  0.80201330    -0.07000
C448        C  0.36761400  0.26144601  0.79844568    -0.07700
C449        C  0.34796007  0.28166895  0.82408678    -0.02300
C450        C  0.33699284  0.26250903  0.85509830     0.04500
N451        N  0.32408178  0.28029785  0.88702083     0.67000
H452        H  0.32653271  0.21140773  0.87708000     0.15900
H453        H  0.37955533  0.27243982  0.77610033     0.15700
N454        N  0.40865630  0.21328114  0.78704634     0.74800
O455        O  0.29356719  0.27244104  0.90025494    -0.38700
O456        O  0.34540840  0.29962015  0.90533649    -0.38600
O457        O  0.41949570  0.22470538  0.75733708    -0.39300
O458        O  0.43149144  0.19851241  0.80698785    -0.39400
C459        C  0.25486919  0.14589607  0.64470112    -0.11700
C460        C  0.27714518  0.17434589  0.65703269     0.05300
C461        C  0.25711838  0.20273576  0.67102455    -0.07000
C462        C  0.22044705  0.20588591  0.66362928    -0.07700
C463        C  0.19828231  0.17610700  0.66613020    -0.02300
C464        C  0.21648346  0.14488673  0.65321268     0.04500
N465        N  0.19715177  0.11261058  0.64789788     0.67000
H466        H  0.26667684  0.12397375  0.63070152     0.15900
H467        H  0.21063132  0.23184148  0.66664378     0.15700
N468        N  0.26691930  0.21585798  0.70515143     0.74800
O469        O  0.18672312  0.10389367  0.61662493    -0.38700
O470        O  0.19991863  0.08926875  0.67114577    -0.38600
O471        O  0.28705513  0.24230041  0.70892162    -0.39300
O472        O  0.25233096  0.20189991  0.73184929    -0.39400
C473        C  0.17075134  0.27689153  0.70584987    -0.11700
C474        C  0.14945517  0.29518484  0.68179533     0.05300
C475        C  0.12246160  0.27488414  0.66265217    -0.07000
C476        C  0.12302758  0.23741383  0.66414839    -0.07700
C477        C  0.14756602  0.21959629  0.68695960    -0.02300
C478        C  0.16637381  0.24194524  0.71211148     0.04500
N479        N  0.17683806  0.23228036  0.74708163     0.67000
H480        H  0.19006289  0.29105664  0.72280938     0.15900
H481        H  0.10374014  0.22262452  0.64785489     0.15700
N482        N  0.09510344  0.29088250  0.64131751     0.74800
O483        O  0.20773260  0.24231617  0.75810264    -0.38700
O484        O  0.15143796  0.23354056  0.76955143    -0.38600
O485        O  0.09344824  0.28384402  0.60806142    -0.39300
O486        O  0.06816333  0.30517845  0.65665549    -0.39400
C487        C  0.21959246  0.36958241  0.66009238    -0.11700
C488        C  0.20000795  0.33838493  0.66674000     0.05300
C489        C  0.21967606  0.30860920  0.65573701    -0.07000
C490        C  0.25662203  0.30830504  0.66425514    -0.07700
C491        C  0.27957973  0.33793155  0.66037907    -0.02300
C492        C  0.25878117  0.36997874  0.65585519     0.04500
N493        N  0.27503012  0.40314503  0.64785558     0.67000
H494        H  0.20463470  0.39381539  0.65877905     0.15900
H495        H  0.26686454  0.28310358  0.66962244     0.15700
N496        N  0.21003780  0.29188918  0.62201457     0.74800
O497        O  0.26445045  0.42993472  0.66528533    -0.38700
O498        O  0.28845764  0.40769448  0.61718334    -0.38600
O499        O  0.22544837  0.30144488  0.59354820    -0.39300
O500        O  0.18595179  0.26831700  0.61991369    -0.39400
C501        C  0.18647916  0.35909253  0.77973274    -0.11700
C502        C  0.16197284  0.33858017  0.80013210     0.05300
C503        C  0.12761612  0.33346860  0.78258429    -0.07000
C504        C  0.12678328  0.33249527  0.74439285    -0.07700
C505        C  0.15556063  0.34659693  0.72320643    -0.02300
C506        C  0.18259051  0.36473581  0.74313285     0.04500
N507        N  0.20502067  0.39110285  0.72835085     0.67000
H508        H  0.20996148  0.37149587  0.79222127     0.15900
H509        H  0.10261763  0.32236824  0.73086054     0.15700
N510        N  0.09361167  0.34027753  0.80068322     0.74800
O511        O  0.19106854  0.41983784  0.71982474    -0.38700
O512        O  0.23881087  0.38981615  0.73402852    -0.38600
O513        O  0.09208468  0.36423255  0.82444175    -0.39300
O514        O  0.06398949  0.32982005  0.78657408    -0.39400
C515        C  0.23365628  0.30992978  0.81009701    -0.11700
C516        C  0.21779902  0.32821146  0.83904950     0.05300
C517        C  0.24259921  0.34301272  0.86473559    -0.07000
C518        C  0.28098875  0.34023131  0.85890468    -0.07700
C519        C  0.29628396  0.32509669  0.82684785    -0.02300
C520        C  0.27030315  0.31194958  0.80123105     0.04500
N521        N  0.27909586  0.30084853  0.76507190     0.67000
H522        H  0.21586613  0.29622710  0.79137709     0.15900
H523        H  0.29862842  0.34923026  0.88051239     0.15700
N524        N  0.23023086  0.35728555  0.89842001     0.74800
O525        O  0.30744174  0.28373952  0.75787861    -0.38700
O526        O  0.25709087  0.30713238  0.73999062    -0.38600
O527        O  0.21807462  0.33696109  0.92187624    -0.39300
O528        O  0.23993608  0.38782921  0.90797373    -0.39400
C529        C  0.13005787  0.16530846  0.78386566    -0.11700
C530        C  0.16437201  0.15735911  0.79898416     0.05300
C531        C  0.18756561  0.13925306  0.77389021    -0.07000
C532        C  0.18596008  0.14664846  0.73719428    -0.07700
C533        C  0.15652636  0.16489707  0.72239841    -0.02300
C534        C  0.12589100  0.16975606  0.74614209     0.04500
N535        N  0.09158937  0.18236042  0.73333032     0.67000
H536        H  0.10655462  0.16915825  0.80078714     0.15900
H537        H  0.20741739  0.13617543  0.72057283     0.15700
N538        N  0.20581484  0.10775069  0.78335484     0.74800
O539        O  0.08454527  0.21454649  0.73650224    -0.38700
O540        O  0.06537467  0.16105766  0.72933911    -0.38600
O541        O  0.19250892  0.07875241  0.77281617    -0.39300
O542        O  0.23799720  0.10859931  0.79509635    -0.39400
C543        C  0.23727472  0.18298101  0.81432051    -0.11700
C544        C  0.21960016  0.16306694  0.83995317     0.05300
C545        C  0.24305501  0.14401675  0.86305485    -0.07000
C546        C  0.28201448  0.14554024  0.85818240    -0.07700
C547        C  0.29863037  0.16360213  0.82910883    -0.02300
C548        C  0.27459228  0.18466399  0.80967963     0.04500
N549        N  0.28694433  0.21534383  0.79305772     0.67000
H550        H  0.22109204  0.20003205  0.79852108     0.15900
H551        H  0.29888609  0.13251797  0.87751406     0.15700
N552        N  0.22867854  0.12390946  0.89166220     0.74800
O553        O  0.27484941  0.24381881  0.80513018    -0.38700
O554        O  0.30961645  0.21487653  0.76770484    -0.38600
O555        O  0.22926165  0.09095242  0.88913268    -0.39300
O556        O  0.22315556  0.13843703  0.92191317    -0.39400
C557        C  0.13861115  0.22665030  0.83952256    -0.11700
C558        C  0.17078373  0.20883922  0.84882457     0.05300
C559        C  0.19615599  0.23052214  0.86856185    -0.07000
C560        C  0.19369070  0.26709901  0.86787164    -0.07700
C561        C  0.16722111  0.28527018  0.84757166    -0.02300
C562        C  0.13626101  0.26382244  0.83850914     0.04500
N563        N  0.10089611  0.27785022  0.83236983     0.67000
H564        H  0.11406826  0.21206735  0.83425082     0.15900
H565        H  0.21420559  0.28127552  0.88316219     0.15700
N566        N  0.22399918  0.21670868  0.89116321     0.74800
O567        O  0.08132623  0.26425926  0.80773876    -0.38700
O568        O  0.08533727  0.29443875  0.85765166    -0.38600
O569        O  0.25655092  0.21818621  0.88055658    -0.39300
O570        O  0.21858697  0.21614924  0.92455971    -0.39400
C571        C  0.15269428  0.10822132  0.85699283    -0.11700
C572        C  0.15528390  0.14429955  0.86607979     0.05300
C573        C  0.13552458  0.15575765  0.89762288    -0.07000
C574        C  0.11419688  0.13198107  0.91668523    -0.07700
C575        C  0.11073649  0.09725134  0.90555839    -0.02300
C576        C  0.13028639  0.08515370  0.87562016     0.04500
N577        N  0.12825130  0.04926041  0.86417654     0.67000
H578        H  0.16769253  0.09743601  0.83476543     0.15900
H579        H  0.09974021  0.14101870  0.94053089     0.15700
N580        N  0.13713146  0.19038012  0.91281010     0.74800
O581        O  0.10692786  0.04020668  0.83893497    -0.38700
O582        O  0.15164350  0.02790594  0.87520206    -0.38600
O583        O  0.11042275  0.21027331  0.90732725    -0.39300
O584        O  0.15429849  0.19458350  0.94200069    -0.39400
C585        C  0.08668097  0.40163382  0.64616410    -0.11700
C586        C  0.09162273  0.39784389  0.60925027     0.05300
C587        C  0.11755234  0.37384157  0.59631243    -0.07000
C588        C  0.13729579  0.35358875  0.62037090    -0.07700
C589        C  0.13335087  0.35749689  0.65801468    -0.02300
C590        C  0.10726357  0.38291911  0.67059196     0.04500
N591        N  0.10041408  0.39130486  0.70755524     0.67000
H592        H  0.06745018  0.42068195  0.65669704     0.15900
H593        H  0.15636889  0.33485584  0.60924615     0.15700
N594        N  0.12410364  0.36941338  0.55878350     0.74800
O595        O  0.11694870  0.41714014  0.72179131    -0.38700
O596        O  0.07022223  0.38211471  0.72080819    -0.38600
O597        O  0.15101227  0.38487800  0.54500164    -0.39300
O598        O  0.10932214  0.34399261  0.54206702    -0.39400
C599        C  0.36110743  0.09245421  0.61146992    -0.11700
C600        C  0.38645008  0.10724933  0.58837879     0.05300
C601        C  0.38881317  0.14366221  0.58670792    -0.07000
C602        C  0.36661538  0.16473935  0.60880075    -0.07700
C603        C  0.34110249  0.15065485  0.63364192    -0.02300
C604        C  0.33927863  0.11312729  0.63452948     0.04500
N605        N  0.32167927  0.09487637  0.66277443     0.67000
H606        H  0.35998287  0.06421682  0.61349189     0.15900
H607        H  0.37140726  0.19248942  0.60695466     0.15700
N608        N  0.41485639  0.15979634  0.56369996     0.74800
O609        O  0.29472650  0.07536424  0.65509107    -0.38700
O610        O  0.34175882  0.08602178  0.68843972    -0.38600
O611        O  0.40473614  0.17112852  0.53373506    -0.39300
O612        O  0.44603690  0.16800198  0.57578638    -0.39400
C613        C  0.10852848  0.13928920  0.59687239    -0.11700
C614        C  0.08884809  0.11126638  0.61112347     0.05300
C615        C  0.09055483  0.10630091  0.64839548    -0.07000
C616        C  0.11208728  0.12834971  0.67026208    -0.07700
C617        C  0.13170753  0.15745663  0.65699816    -0.02300
C618        C  0.12959375  0.16232770  0.61894666     0.04500
N619        N  0.15043714  0.18877173  0.60141438     0.67000
H620        H  0.10792184  0.14317968  0.56812911     0.15900
H621        H  0.11409552  0.12073976  0.69786400     0.15700
N622        N  0.07256721  0.07735031  0.66458878     0.74800
O623        O  0.18192252  0.18121056  0.59004949    -0.38700
O624        O  0.13361337  0.21328442  0.58659393    -0.38600
O625        O  0.08922574  0.04872537  0.66715682    -0.39300
O626        O  0.04436308  0.08270448  0.68331909    -0.39400
C627        C  0.41657768  0.36215661  0.88160867    -0.11700
C628        C  0.40285254  0.39565290  0.88845167     0.05300
C629        C  0.36975422  0.40519417  0.87260194    -0.07000
C630        C  0.35116330  0.38141417  0.85012526    -0.07700
C631        C  0.36253579  0.34632343  0.84505200    -0.02300
C632        C  0.39710082  0.33725588  0.86063467     0.04500
N633        N  0.41415023  0.30390173  0.85503105     0.67000
H634        H  0.44268312  0.35504359  0.89301582     0.15900
H635        H  0.32657411  0.39053706  0.83742383     0.15700
N636        N  0.35491839  0.43935887  0.87833233     0.74800
O637        O  0.44057621  0.30162883  0.83343641    -0.38700
O638        O  0.41227971  0.28184476  0.87966260    -0.38600
O639        O  0.35637328  0.46116375  0.85342690    -0.39300
O640        O  0.33358189  0.44480514  0.90442843    -0.39400
C641        C  0.37756895  0.08549937  0.87633848    -0.11700
C642        C  0.40625001  0.10130831  0.89499391     0.05300
C643        C  0.41512626  0.13597256  0.88793129    -0.07000
C644        C  0.39356773  0.15500694  0.86429095    -0.07700
C645        C  0.36404935  0.13988883  0.84405996    -0.02300
C646        C  0.35771406  0.10293955  0.84984717     0.04500
N647        N  0.33373156  0.08072223  0.82891063     0.67000
H648        H  0.37160742  0.05816646  0.88113630     0.15900
H649        H  0.40107527  0.18214279  0.86249268     0.15700
N650        N  0.44584449  0.15256727  0.90497571     0.74800
O651        O  0.34650248  0.05190918  0.81748816    -0.38700
O652        O  0.29979427  0.08194537  0.83402922    -0.38600
O653        O  0.47583498  0.15420765  0.88842141    -0.39300
O654        O  0.44124005  0.17100581  0.93311895    -0.39400
C655        C  0.13749722  0.33757067  0.89764431    -0.11700
C656        C  0.15650810  0.35137866  0.86805138     0.05300
C657        C  0.15468498  0.38863415  0.86423764    -0.07000
C658        C  0.13030655  0.40862772  0.88519893    -0.07700
C659        C  0.10874385  0.39360205  0.91158827    -0.02300
C660        C  0.11382357  0.35804420  0.91900439     0.04500
N661        N  0.09449933  0.34180789  0.94751557     0.67000
H662        H  0.13960195  0.31021732  0.90394394     0.15900
H663        H  0.12823980  0.43647641  0.88074473     0.15700
N664        N  0.17554110  0.40707839  0.83827782     0.74800
O665        O  0.06062016  0.33632758  0.94437961    -0.38700
O666        O  0.11224100  0.32553754  0.97085184    -0.38600
O667        O  0.15897168  0.42435382  0.81483435    -0.39300
O668        O  0.20854721  0.41435421  0.84488959    -0.39400
C669        C  0.36140050  0.37981308  0.57800834    -0.11700
C670        C  0.38986702  0.40002883  0.59280191     0.05300
C671        C  0.39789406  0.39658783  0.62941538    -0.07000
C672        C  0.37667662  0.37491694  0.65046578    -0.07700
C673        C  0.34610137  0.35563262  0.63714953    -0.02300
C674        C  0.34028659  0.35716754  0.59911075     0.04500
N675        N  0.31335202  0.33651590  0.58058749     0.67000
H676        H  0.35549551  0.38124529  0.54955773     0.15900
H677        H  0.38481077  0.37505276  0.67811958     0.15700
N678        N  0.42721599  0.41552168  0.64645996     0.74800
O679        O  0.28141335  0.34824211  0.57760667    -0.38700
O680        O  0.32405797  0.31381458  0.55786513    -0.38600
O681        O  0.42067761  0.44389405  0.66313967    -0.39300
O682        O  0.45737051  0.40051242  0.65124819    -0.39400
C683        C  0.40917195  0.92182953  0.07540571     0.43000
N684        N  0.44893681  0.96137998  0.06178299     0.01900
C685        C  0.46224194  0.55864455  0.40045175    -0.06000
H686        H  0.47797744  0.93882512  0.37598005     0.07400
C687        C  0.08930794  0.94085895  0.46550057    -0.06300
Co688      Co  0.43237381  0.00355446  0.48859708     0.74200
N689        N  0.46551377  0.96677387  0.42524172    -0.25500
Co690      Co  0.00048880  0.00084029  0.43611747     0.74100
C691        C  0.07860868  0.92147356  0.43312946     0.43100
N692        N  0.06109132  0.96696662  0.05084233     0.01500
N693        N  0.04135518  0.96373118  0.44182917     0.01600
N694        N  0.41503861  0.56119144  0.43933490    -0.46300
H695        H  0.37673895  0.93118925  0.02321936     0.07400
N696        N  0.43764767  0.96578684  0.44756427     0.01900
N697        N  0.04803269  0.53560067  0.44260693     0.01700
C698        C  0.08791510  0.57418598  0.42962449     0.43300
N699        N  0.03263055  0.96822741  0.07247915    -0.24900
C700        C  0.39704301  0.56491371  0.03184717    -0.05900
N701        N  0.43960847  0.93892316  0.08684878    -0.46000
N702        N  0.05744143  0.55790079  0.41751341    -0.46300
C703        C  0.40571694  0.58232221  0.06635084     0.43000
N704        N  0.43844832  0.53666665  0.44822095     0.01900
N705        N  0.03187577  0.54290327  0.06825627    -0.25000
N706        N  0.42619890  0.96075519  0.03415124    -0.25500
N707        N  0.06051352  0.54271312  0.04673568     0.01600
H708        H  0.01728032  0.57379741  0.11497614     0.07400
H709        H  0.12062224  0.56511290  0.48132289     0.07500
N710        N  0.46622794  0.53435065  0.42577248    -0.25500
N711        N  0.06465778  0.96639274  0.46886577    -0.25100
N712        N  0.44727352  0.54449382  0.05344636     0.01900
C713        C  0.42486367  0.92675660  0.40686290     0.43300
C714        C  0.03582117  0.94260904  0.09614638    -0.06400
N715        N  0.07089368  0.53615120  0.47009582    -0.25100
H716        H  0.11249709  0.93701334  0.48295625     0.07500
N717        N  0.41269103  0.94230276  0.43753335    -0.46300
H718        H  0.01669517  0.93743575  0.11750715     0.07500
C719        C  0.07128902  0.58445454  0.08554860     0.43200
C720        C  0.40028777  0.93632241  0.04013658    -0.05900
Co721      Co  0.48907550  0.50860068  0.05979960     0.73800
N722        N  0.08436147  0.94180497  0.05869239    -0.46100
C723        C  0.42816944  0.57669457  0.40966388     0.43400
N724        N  0.43712738  0.56798974  0.07788557    -0.46000
Co725      Co  0.06537534  0.50237753  0.00705589     0.73900
C726        C  0.09713004  0.55994843  0.46433258    -0.06400
C727        C  0.46009713  0.94294452  0.39871772    -0.05900
N728        N  0.42417485  0.54192327  0.02633547    -0.25500
N729        N  0.04938086  0.93772905  0.41915466    -0.46200
H730        H  0.47987460  0.56177190  0.37746955     0.07400
C731        C  0.03597278  0.56843545  0.09311864    -0.06300
Cl732      Cl  0.99860659  0.50188630  0.99969880    -0.49300
C733        C  0.07016073  0.92495343  0.08693310     0.43200
H734        H  0.37313093  0.56686481  0.01504422     0.07400
N735        N  0.08509351  0.56698779  0.05644324    -0.46100
C736        C  0.16817850  0.67453352  0.34240686    -0.01900
C737        C  0.16725656  0.83197252  0.33961257    -0.01900
C738        C  0.15521464  0.83529125  0.18322008    -0.01900
C739        C  0.15695060  0.67823147  0.18405321    -0.01900
C740        C  0.33388445  0.67259821  0.32818913    -0.01900
C741        C  0.32160245  0.67258258  0.16481098    -0.01900
C742        C  0.32057050  0.82381267  0.16317811    -0.01900
C743        C  0.33164153  0.82479212  0.32431092    -0.01900
C744        C  0.34924851  0.80086817  0.22419143    -0.11700
C745        C  0.33164024  0.82784269  0.20498675     0.05300
C746        C  0.32571948  0.85919781  0.22640519    -0.07000
C747        C  0.32908366  0.85899580  0.26434858    -0.07700
C748        C  0.34075815  0.82903292  0.28263197    -0.02300
C749        C  0.35966620  0.80474821  0.26059171     0.04500
N750        N  0.39789817  0.80039313  0.26711694     0.67000
H751        H  0.35826960  0.77728886  0.21154056     0.15900
H752        H  0.31948509  0.88145833  0.27981685     0.15700
N753        N  0.31485442  0.89141748  0.21129559     0.74800
O754        O  0.41185773  0.77045602  0.26545933    -0.38700
O755        O  0.41881771  0.82672786  0.26649531    -0.38600
O756        O  0.28228151  0.90094708  0.21566566    -0.39300
O757        O  0.33886219  0.91491610  0.20779956    -0.39400
C758        C  0.36280346  0.72936854  0.14822935    -0.11700
C759        C  0.32987843  0.70985727  0.14591643     0.05300
C760        C  0.30297092  0.72863925  0.12611883    -0.07000
C761        C  0.30156450  0.76526283  0.12901556    -0.07700
C762        C  0.32830147  0.78484272  0.14793870    -0.02300
C763        C  0.36243755  0.76692488  0.14851685     0.04500
N764        N  0.39611973  0.78593013  0.14668117     0.67000
H765        H  0.38851797  0.71587282  0.14756966     0.15900
H766        H  0.27960771  0.77831927  0.11562111     0.15700
N767        N  0.28029379  0.71207925  0.09938300     0.74800
O768        O  0.41520484  0.79140890  0.17449029    -0.38700
O769        O  0.40947514  0.79241981  0.11630371    -0.38600
O770        O  0.24623132  0.71585942  0.10150032    -0.39300
O771        O  0.29388772  0.70663403  0.06863640    -0.39400
C772        C  0.36314024  0.68813095  0.26379751    -0.11700
C773        C  0.33984501  0.66718314  0.28514519     0.05300
C774        C  0.32214427  0.64006927  0.26446672    -0.07000
C775        C  0.31528501  0.64432547  0.22735829    -0.07700
C776        C  0.33376929  0.66928101  0.20630694    -0.02300
C777        C  0.36243287  0.68731706  0.22544366     0.04500
N778        N  0.39484494  0.69865318  0.20782255     0.67000
H779        H  0.38398642  0.70387124  0.27617974     0.15900
H780        H  0.29760742  0.62543189  0.21387057     0.15700
N781        N  0.32101060  0.60490414  0.27677334     0.74800
O782        O  0.40619128  0.72947470  0.21269249    -0.38700
O783        O  0.41665304  0.67633593  0.19492550    -0.38600
O784        O  0.29665071  0.58416419  0.26480423    -0.39300
O785        O  0.35036692  0.59183606  0.28795969    -0.39400
C786        C  0.32229822  0.72997879  0.36683296    -0.11700
C787        C  0.34681818  0.71062492  0.34502452     0.05300
C788        C  0.37730807  0.73202773  0.33533081    -0.07000
C789        C  0.37289336  0.76910698  0.33272102    -0.07700
C790        C  0.33881435  0.78574692  0.33799607    -0.02300
C791        C  0.31549174  0.76571201  0.36098850     0.04500
N792        N  0.28415045  0.77943920  0.37871057     0.67000
H793        H  0.30378441  0.71666531  0.38448422     0.15900
H794        H  0.39679040  0.78529118  0.32922459     0.15700
N795        N  0.41376491  0.71933384  0.33898389     0.74800
O796        O  0.28418066  0.78122827  0.41258456    -0.38700
O797        O  0.25413708  0.77326676  0.36366245    -0.38600
O798        O  0.43704757  0.72462571  0.31472075    -0.39300
O799        O  0.42476114  0.71078228  0.36969272    -0.39400
C800        C  0.25550863  0.64162088  0.15366145    -0.11700
C801        C  0.27819720  0.66994446  0.16538694     0.05300
C802        C  0.25956232  0.69841897  0.18060458    -0.07000
C803        C  0.22263222  0.70286679  0.17537853    -0.07700
C804        C  0.19864357  0.67442629  0.17082748    -0.02300
C805        C  0.21652946  0.64260413  0.15886317     0.04500
N806        N  0.19629620  0.61094392  0.15277212     0.67000
H807        H  0.26784819  0.61771787  0.14359223     0.15900
H808        H  0.21412212  0.72886767  0.18068463     0.15700
N809        N  0.27410971  0.71473225  0.21176365     0.74800
O810        O  0.19000716  0.60060697  0.12092094    -0.38700
O811        O  0.19337985  0.58942622  0.17782347    -0.38600
O812        O  0.30003283  0.73640937  0.21018246    -0.39300
O813        O  0.26880706  0.69834800  0.24011199    -0.39400
C814        C  0.16221457  0.77681206  0.21018450    -0.11700
C815        C  0.14438817  0.79495588  0.18349126     0.05300
C816        C  0.12129627  0.77398261  0.16048866    -0.07000
C817        C  0.12253515  0.73633275  0.16192144    -0.07700
C818        C  0.14597449  0.71877594  0.18622551    -0.02300
C819        C  0.16108667  0.74122244  0.21332281     0.04500
N820        N  0.17963663  0.72931227  0.24370621     0.67000
H821        H  0.17969449  0.79081629  0.22924941     0.15900
H822        H  0.10528759  0.72130058  0.14375615     0.15700
N823        N  0.09736914  0.78954268  0.13526050     0.74800
O824        O  0.21310684  0.73601675  0.24583331    -0.38700
O825        O  0.16175816  0.73148697  0.27214162    -0.38600
O826        O  0.10320702  0.78521351  0.10206119    -0.39300
O827        O  0.06649802  0.80013196  0.14567923    -0.39400
C828        C  0.21888208  0.86572421  0.15963023    -0.11700
C829        C  0.19771481  0.83637213  0.17084116     0.05300
C830        C  0.21658372  0.80502445  0.16404267    -0.07000
C831        C  0.25341006  0.80482588  0.17403778    -0.07700
C832        C  0.27720661  0.83158018  0.16236673    -0.02300
C833        C  0.25761096  0.86264734  0.15178187     0.04500
N834        N  0.27397541  0.88924421  0.13038401     0.67000
H835        H  0.20533869  0.88991960  0.15380110     0.15900
H836        H  0.26398015  0.78043998  0.18283430     0.15700
N837        N  0.20832921  0.78792693  0.13019574     0.74800
O838        O  0.25934496  0.89648731  0.10077015    -0.38700
O839        O  0.29705880  0.91037237  0.14373993    -0.38600
O840        O  0.21648635  0.80263492  0.10122206    -0.39300
O841        O  0.19207108  0.75886393  0.12874745    -0.39400
C842        C  0.18066815  0.86537758  0.27933648    -0.11700
C843        C  0.15602395  0.84520244  0.30043639     0.05300
C844        C  0.12213323  0.83923207  0.28310336    -0.07000
C845        C  0.12260410  0.83366384  0.24559235    -0.07700
C846        C  0.15064675  0.84812798  0.22371740    -0.02300
C847        C  0.17569222  0.87013176  0.24223516     0.04500
N848        N  0.19102764  0.90058926  0.22594832     0.67000
H849        H  0.20395589  0.87821079  0.29175087     0.15900
H850        H  0.09956834  0.82040830  0.23298946     0.15700
N851        N  0.08809709  0.84966391  0.29946595     0.74800
O852        O  0.17241924  0.91650254  0.20298000    -0.38700
O853        O  0.21681959  0.91702310  0.24139560    -0.38600
O854        O  0.08766037  0.87384234  0.32303503    -0.39300
O855        O  0.05815674  0.84066354  0.28500305    -0.39400
C856        C  0.22644707  0.81572940  0.31172657    -0.11700
C857        C  0.21035602  0.83358716  0.34055930     0.05300
C858        C  0.23484968  0.85177580  0.36458648    -0.07000
C859        C  0.27326620  0.85214684  0.35724883    -0.07700
C860        C  0.28897159  0.83367636  0.32746224    -0.02300
C861        C  0.26260825  0.82024394  0.30218233     0.04500
N862        N  0.26833220  0.81778278  0.26432163     0.67000
H863        H  0.20915739  0.80151966  0.29259833     0.15900
H864        H  0.29052420  0.86633167  0.37585333     0.15700
N865        N  0.22269734  0.86656004  0.39820355     0.74800
O866        O  0.27900743  0.78962301  0.25004647    -0.38700
O867        O  0.25172554  0.83913301  0.24489846    -0.38600
O868        O  0.20841965  0.84687345  0.42109388    -0.39300
O869        O  0.23449751  0.89621004  0.40852868    -0.39400
C870        C  0.12475639  0.66684936  0.28476171    -0.11700
C871        C  0.15879375  0.66141443  0.30170159     0.05300
C872        C  0.18445206  0.64419478  0.27830044    -0.07000
C873        C  0.18277639  0.64827084  0.24104034    -0.07700
C874        C  0.15334594  0.66473038  0.22414620    -0.02300
C875        C  0.12203913  0.67040720  0.24675948     0.04500
N876        N  0.08817314  0.68226728  0.23237233     0.67000
H877        H  0.10040172  0.66990782  0.30078372     0.15900
H878        H  0.20549431  0.63813785  0.22591399     0.15700
N879        N  0.21079690  0.61987724  0.29088411     0.74800
O880        O  0.08082640  0.71444250  0.23451643    -0.38700
O881        O  0.06225495  0.66063971  0.22827237    -0.38600
O882        O  0.20167221  0.58802240  0.29162950    -0.39300
O883        O  0.24405533  0.62696197  0.28652162    -0.39400
C884        C  0.22946235  0.69316969  0.32050190    -0.11700
C885        C  0.21139840  0.67266326  0.34541257     0.05300
C886        C  0.23484900  0.65599312  0.37029801    -0.07000
C887        C  0.27354967  0.65873751  0.36593902    -0.07700
C888        C  0.29069951  0.67220239  0.33469260    -0.02300
C889        C  0.26738571  0.69548974  0.31633290     0.04500
N890        N  0.27972474  0.72732046  0.30035828     0.67000
H891        H  0.21284572  0.70928704  0.30418833     0.15900
H892        H  0.29026289  0.65298750  0.38889922     0.15700
N893        N  0.22128013  0.63937966  0.40173180     0.74800
O894        O  0.25716290  0.75150623  0.29783408    -0.38700
O895        O  0.31053401  0.73159802  0.28630377    -0.38600
O896        O  0.21974417  0.60642717  0.40185095    -0.39300
O897        O  0.22337359  0.65553864  0.43157911    -0.39400
C898        C  0.13058096  0.73319699  0.33405694    -0.11700
C899        C  0.15926869  0.71510074  0.35049219     0.05300
C900        C  0.17954003  0.73656326  0.37536505    -0.07000
C901        C  0.17913569  0.77349939  0.37281067    -0.07700
C902        C  0.15826230  0.79124268  0.34679313    -0.02300
C903        C  0.12907204  0.77011307  0.33259477     0.04500
N904        N  0.09434488  0.78403502  0.32368115     0.67000
H905        H  0.10801426  0.71936271  0.32241291     0.15900
H906        H  0.19555692  0.78856652  0.39168955     0.15700
N907        N  0.19771814  0.72182863  0.40550585     0.74800
O908        O  0.07808986  0.77221244  0.29596267    -0.38700
O909        O  0.07553067  0.79786929  0.34851888    -0.38600
O910        O  0.23166595  0.72599705  0.40938278    -0.39300
O911        O  0.17908905  0.71350048  0.43248669    -0.39400
C912        C  0.15380320  0.61395915  0.36438376    -0.11700
C913        C  0.14679299  0.65008187  0.36797146     0.05300
C914        C  0.11817660  0.66012036  0.39252104    -0.07000
C915        C  0.10091304  0.63485261  0.41338147    -0.07700
C916        C  0.10894551  0.59953914  0.40918718    -0.02300
C917        C  0.13520391  0.58889512  0.38411544     0.04500
N918        N  0.14288572  0.55265285  0.37785929     0.67000
H919        H  0.17453102  0.60483356  0.34636936     0.15900
H920        H  0.07933624  0.64280064  0.43170084     0.15700
N921        N  0.10212804  0.69408445  0.39402917     0.74800
O922        O  0.12613961  0.53601698  0.35316612    -0.38700
O923        O  0.17089470  0.53943514  0.39175410    -0.38600
O924        O  0.07333771  0.69865278  0.37609406    -0.39300
O925        O  0.10730939  0.71316559  0.42168137    -0.39400
C926        C  0.08163372  0.89978429  0.14593627    -0.11700
C927        C  0.09057364  0.90047309  0.10980486     0.05300
C928        C  0.11909004  0.87894857  0.09728226    -0.07000
C929        C  0.13815598  0.85764370  0.12117470    -0.07700
C930        C  0.13034647  0.85751221  0.15833075    -0.02300
C931        C  0.10042699  0.87932426  0.17011625     0.04500
N932        N  0.08678979  0.88155210  0.20595807     0.67000
H933        H  0.05990422  0.91616643  0.15637610     0.15900
H934        H  0.15942485  0.84110271  0.11031723     0.15700
N935        N  0.12818262  0.87725434  0.06012765     0.74800
O936        O  0.09726668  0.90671781  0.22605294    -0.38700
O937        O  0.05628592  0.86743467  0.21234067    -0.38600
O938        O  0.15598054  0.89348450  0.04920355    -0.39300
O939        O  0.11403880  0.85346543  0.04057025    -0.39400
C940        C  0.38944702  0.60240120  0.12756237    -0.11700
C941        C  0.38162331  0.60292425  0.09081542     0.05300
C942        C  0.35026390  0.62084526  0.07975069    -0.07000
C943        C  0.32985266  0.64013196  0.10498387    -0.07700
C944        C  0.33952805  0.64281240  0.14155632    -0.02300
C945        C  0.36794344  0.61993388  0.15305484     0.04500
N946        N  0.37132844  0.60790028  0.18904272     0.67000
H947        H  0.41120318  0.58596915  0.13723009     0.15900
H948        H  0.30568664  0.65270175  0.09575117     0.15700
N949        N  0.33916894  0.62109306  0.04302851     0.74800
O950        O  0.34983809  0.58390671  0.19853786    -0.38700
O951        O  0.40194367  0.61020638  0.20456280    -0.38600
O952        O  0.31405734  0.60050452  0.03255790    -0.39300
O953        O  0.34618033  0.64779242  0.02492597    -0.39400
C954        C  0.11254604  0.63648268  0.09645085    -0.11700
C955        C  0.09213980  0.60871613  0.11012709     0.05300
C956        C  0.09163288  0.60451125  0.14758091    -0.07000
C957        C  0.11151744  0.62727265  0.17025975    -0.07700
C958        C  0.13216619  0.65590527  0.15743583    -0.02300
C959        C  0.13231559  0.65990868  0.11922914     0.04500
N960        N  0.15484426  0.68536098  0.10230434     0.67000
H961        H  0.11359318  0.63984443  0.06763706     0.15900
H962        H  0.11169738  0.62047452  0.19817461     0.15700
N963        N  0.07309567  0.57558511  0.16324962     0.74800
O964        O  0.18586534  0.67586591  0.09133648    -0.38700
O965        O  0.13966137  0.71044706  0.08681545    -0.38600
O966        O  0.08862399  0.54624754  0.16411841    -0.39300
O967        O  0.04514725  0.58100516  0.18233012    -0.39400
C968        C  0.37960864  0.87865083  0.40359138    -0.11700
C969        C  0.40329684  0.90066274  0.38545906     0.05300
C970        C  0.40540537  0.89710400  0.34792848    -0.07000
C971        C  0.38257440  0.87322191  0.32948957    -0.07700
C972        C  0.35718939  0.85088996  0.34701776    -0.02300
C973        C  0.35820307  0.85321095  0.38557708     0.04500
N974        N  0.33999969  0.82911025  0.40810398     0.67000
H975        H  0.37884533  0.88004671  0.43271949     0.15900
H976        H  0.38580256  0.87310580  0.30084321     0.15700
N977        N  0.42978526  0.91816437  0.32755858     0.74800
O978        O  0.35717567  0.80190285  0.41631801    -0.38700
O979        O  0.31711726  0.84121722  0.43043931    -0.38600
O980        O  0.45840187  0.90461323  0.31468633    -0.39300
O981        O  0.41874804  0.94683911  0.31557224    -0.39400
C982        C  0.36749914  0.59421940  0.38859220    -0.11700
C983        C  0.40508907  0.59901050  0.38667609     0.05300
C984        C  0.41868402  0.62235540  0.36132378    -0.07000
C985        C  0.39430493  0.64270221  0.34141413    -0.07700
C986        C  0.35597718  0.64206799  0.34664731    -0.02300
C987        C  0.34293981  0.61276224  0.36744995     0.04500
N988        N  0.30709814  0.59713849  0.36545205     0.67000
H989        H  0.35688245  0.57344949  0.40504095     0.15900
H990        H  0.40577960  0.65910803  0.32114624     0.15700
N991        N  0.45706543  0.62662533  0.35606735     0.74800
O992        O  0.29756720  0.58026868  0.33756523    -0.38700
O993        O  0.29160217  0.58925291  0.39449610    -0.38600
O994        O  0.47146703  0.61589985  0.32711338    -0.39300
O995        O  0.47517874  0.64619705  0.37733590    -0.39400
C996        C  0.12665736  0.84202960  0.39523699    -0.11700
C997        C  0.14887444  0.85647248  0.36805592     0.05300
C998        C  0.14981092  0.89393238  0.36614540    -0.07000
C999        C  0.12701626  0.91423773  0.38819731    -0.07700
C1000       C  0.10291761  0.89886939  0.41206911    -0.02300
C1001       C  0.10328448  0.86265646  0.41627979     0.04500
N1002       N  0.07862333  0.84612291  0.44042521     0.67000
H1003       H  0.12525258  0.81425781  0.39949225     0.15900
H1004       H  0.12720054  0.94244344  0.38564987     0.15700
N1005       N  0.17026466  0.91227573  0.33976845     0.74800
O1006       O  0.04507435  0.84446750  0.43273257    -0.38700
O1007       O  0.09104640  0.82701675  0.46470731    -0.38600
O1008       O  0.15304619  0.92820909  0.31575778    -0.39300
O1009       O  0.20256442  0.92178575  0.34683338    -0.39400
C1010       C  0.36097657  0.87487430  0.08125749    -0.11700
C1011       C  0.38739999  0.89674246  0.09753991     0.05300
C1012       C  0.39355999  0.89319498  0.13471383    -0.07000
C1013       C  0.37323109  0.86903540  0.15448279    -0.07700
C1014       C  0.34418130  0.84891223  0.13931377    -0.02300
C1015       C  0.34030367  0.85070716  0.10113551     0.04500
N1016       N  0.31870671  0.82583823  0.08116122     0.67000
H1017       H  0.35709525  0.87553965  0.05242769     0.15900
H1018       H  0.38109073  0.86641043  0.18221495     0.15700
N1019       N  0.41976572  0.91466839  0.15344836     0.74800
O1020       O  0.28804359  0.83484942  0.06916100    -0.38700
O1021       O  0.33463856  0.80010594  0.06638412    -0.38600
O1022       O  0.41012658  0.94386808  0.16664305    -0.39300
O1023       O  0.45008933  0.90195732  0.16234661    -0.39400
C1024       C  0.41875283  0.92201997  0.56551826     0.43000
N1025       N  0.45293649  0.96653322  0.55528798     0.01900
C1026       C  0.45746841  0.56347321  0.90001907    -0.06000
H1027       H  0.47566622  0.93355893  0.88122375     0.07400
C1028       C  0.09514226  0.93626394  0.96741157    -0.06300
Co1029     Co  0.43078102  0.99871806  0.99389853     0.74200
N1030       N  0.46391776  0.96103807  0.93115826    -0.25500
Co1031     Co  0.00688428  0.99756414  0.93738099     0.74100
C1032       C  0.08491921  0.91769445  0.93394031     0.43100
N1033       N  0.05860609  0.96873897  0.54721135     0.01500
N1034       N  0.04656171  0.95927027  0.94486362     0.01600
N1035       N  0.40978640  0.56362230  0.93860121    -0.46300
H1036       H  0.38522552  0.93083332  0.51383380     0.07400
N1037       N  0.43533085  0.96095313  0.95278256     0.01900
N1038       N  0.04680980  0.53586836  0.93818255     0.01700
C1039       C  0.08396493  0.57716524  0.92504663     0.43300
N1040       N  0.03069193  0.96796455  0.56949608    -0.24900
C1041       C  0.40428872  0.56536362  0.53240311    -0.05900
N1042       N  0.44679591  0.94154159  0.57845237    -0.46000
N1043       N  0.05476807  0.55862369  0.91318340    -0.46300
C1044       C  0.41329569  0.58193109  0.56690946     0.43000
N1045       N  0.43412589  0.53951446  0.94678900     0.01900
N1046       N  0.03385337  0.54008629  0.57222884    -0.25000
N1047       N  0.43024610  0.96521374  0.52771936    -0.25500
N1048       N  0.06223794  0.53990960  0.55039596     0.01600
H1049       H  0.01938636  0.57204582  0.61832074     0.07400
H1050       H  0.11643013  0.57033870  0.97766029     0.07500
N1051       N  0.46226463  0.53880639  0.92458714    -0.25500
N1052       N  0.06995565  0.96156433  0.97185978    -0.25100
N1053       N  0.45118746  0.54044439  0.55611059     0.01900
C1054       C  0.42197679  0.92331098  0.91121657     0.43300
C1055       C  0.03580662  0.94153837  0.59198430    -0.06400
N1056       N  0.06921402  0.53805461  0.96593388    -0.25100
H1057       H  0.11894604  0.93286019  0.98417083     0.07500
N1058       N  0.40920871  0.93918569  0.94139562    -0.46300
H1059       H  0.01782020  0.93479015  0.61381614     0.07500
C1060       C  0.07294524  0.58265218  0.58788713     0.43200
C1061       C  0.40752767  0.93784754  0.53170458    -0.05900
Co1062     Co  0.49087951  0.50180380  0.56182572     0.73800
N1063       N  0.08318902  0.94422726  0.55334724    -0.46100
C1064       C  0.42284048  0.58018986  0.90959660     0.43400
N1065       N  0.44209491  0.56466380  0.58047300    -0.46000
Co1066     Co  0.06649693  0.50002595  0.51057910     0.73900
C1067       C  0.09373602  0.56352856  0.96019389    -0.06400
C1068       C  0.45814067  0.93768871  0.90427525    -0.05900
N1069       N  0.42904435  0.53992695  0.52805999    -0.25500
N1070       N  0.05480546  0.93391141  0.92161572    -0.46200
H1071       H  0.47551428  0.56851102  0.87772299     0.07400
C1072       C  0.03804607  0.56614237  0.59657625    -0.06300
Cl1073     Cl  0.99947877  0.50041742  0.50334184    -0.49300
C1074       C  0.07059411  0.92554429  0.58104732     0.43200
H1075       H  0.38132026  0.56995016  0.51486758     0.07400
N1076       N  0.08647848  0.56481861  0.55897259    -0.46100
C1077       C  0.17018773  0.67415571  0.83694007    -0.01900
C1078       C  0.17085513  0.83134726  0.83149353    -0.01900
C1079       C  0.16362036  0.83816239  0.67251241    -0.01900
C1080       C  0.16064167  0.68149570  0.67887723    -0.01900
C1081       C  0.33554168  0.67334433  0.81875614    -0.01900
C1082       C  0.32401293  0.67652529  0.65767724    -0.01900
C1083       C  0.32820533  0.83229676  0.65679364    -0.01900
C1084       C  0.33661534  0.82939958  0.81452629    -0.01900
C1085       C  0.36873777  0.82630765  0.71645048    -0.11700
C1086       C  0.33824314  0.84080200  0.69841901     0.05300
C1087       C  0.32236841  0.86881811  0.71928277    -0.07000
C1088       C  0.32227960  0.86665525  0.75729112    -0.07700
C1089       C  0.34559380  0.84316006  0.77529216    -0.02300
C1090       C  0.37493580  0.83191702  0.75362108     0.04500
N1091       N  0.41163300  0.83112336  0.76738633     0.67000
H1092       H  0.39071943  0.81554105  0.70188414     0.15900
H1093       H  0.30488521  0.88417120  0.77260942     0.15700
N1094       N  0.32172642  0.90356403  0.70556307     0.74800
O1095       O  0.43483258  0.81073293  0.75328981    -0.38700
O1096       O  0.42276759  0.85585704  0.78764276    -0.38600
O1097       O  0.29729838  0.92462162  0.71578914    -0.39300
O1098       O  0.35151902  0.91646941  0.69498685    -0.39400
C1099       C  0.36344408  0.73574337  0.66153903    -0.11700
C1100       C  0.33385583  0.71619599  0.64688769     0.05300
C1101       C  0.31375039  0.73504429  0.62037646    -0.07000
C1102       C  0.31419326  0.77206421  0.62121306    -0.07700
C1103       C  0.33637800  0.79176068  0.64567818    -0.02300
C1104       C  0.36741535  0.77217998  0.65612011     0.04500
N1105       N  0.40371537  0.78491767  0.64911881     0.67000
H1106       H  0.38630160  0.72272450  0.67209036     0.15900
H1107       H  0.29462064  0.78491955  0.60456008     0.15700
N1108       N  0.29202977  0.71755593  0.59318949     0.74800
O1109       O  0.43030967  0.77407443  0.66733375    -0.38700
O1110       O  0.41023066  0.79959299  0.61976597    -0.38600
O1111       O  0.25900169  0.72592144  0.58941957    -0.39300
O1112       O  0.30778395  0.70214365  0.56728060    -0.39400
C1113       C  0.36885429  0.67424224  0.75493984    -0.11700
C1114       C  0.33853197  0.66494471  0.77639468     0.05300
C1115       C  0.31127385  0.64632949  0.75653481    -0.07000
C1116       C  0.30824042  0.64984378  0.71939920    -0.07700
C1117       C  0.33389304  0.66813428  0.69850448    -0.02300
C1118       C  0.36800478  0.67335631  0.71668600     0.04500
N1119       N  0.40243842  0.67084414  0.69834207     0.67000
H1120       H  0.39492871  0.67698016  0.76747238     0.15900
H1121       H  0.28498107  0.63699133  0.70716557     0.15700
N1122       N  0.28534837  0.62394100  0.77286864     0.74800
O1123       O  0.42920750  0.68912502  0.70938206    -0.38700
O1124       O  0.40866604  0.64487574  0.67784872    -0.38600
O1125       O  0.25231475  0.63111924  0.76880290    -0.39300
O1126       O  0.29378475  0.59300785  0.78016839    -0.39400
C1127       C  0.33032118  0.73401924  0.85502104    -0.11700
C1128       C  0.34899333  0.71267418  0.82933115     0.05300
C1129       C  0.37432184  0.73182850  0.80891053    -0.07000
C1130       C  0.36664351  0.76683112  0.80020211    -0.07700
C1131       C  0.34354887  0.78853004  0.82174019    -0.02300
C1132       C  0.32925204  0.77129708  0.85278288     0.04500
N1133       N  0.31233377  0.79055763  0.88173807     0.67000
H1134       H  0.31493969  0.72184002  0.87590770     0.15900
H1135       H  0.38222111  0.77605831  0.77978262     0.15700
N1136       N  0.41183470  0.72105742  0.80695240     0.74800
O1137       O  0.28124450  0.78145612  0.89273807    -0.38700
O1138       O  0.33117238  0.81131984  0.90108667    -0.38600
O1139       O  0.43261515  0.73260955  0.78288077    -0.39300
O1140       O  0.42545651  0.70368336  0.83208167    -0.39400
C1141       C  0.25846332  0.64491993  0.64513990    -0.11700
C1142       C  0.28059349  0.67460246  0.65424325     0.05300
C1143       C  0.26073803  0.70331439  0.66779300    -0.07000
C1144       C  0.22411769  0.70595568  0.66047958    -0.07700
C1145       C  0.20171794  0.67647091  0.66461228    -0.02300
C1146       C  0.22011205  0.64435095  0.65426674     0.04500
N1147       N  0.20115252  0.61154686  0.65179951     0.67000
H1148       H  0.27083329  0.62153293  0.63431890     0.15900
H1149       H  0.21458883  0.73213321  0.66098824     0.15700
N1150       N  0.27085599  0.71760297  0.70157412     0.74800
O1151       O  0.18708538  0.60224735  0.62212281    -0.38700
O1152       O  0.20889217  0.58817598  0.67391987    -0.38600
O1153       O  0.29439051  0.74154460  0.70458643    -0.39300
O1154       O  0.25958119  0.70195448  0.72881781    -0.39400
C1155       C  0.17582388  0.77947494  0.69637799    -0.11700
C1156       C  0.15523709  0.79735717  0.67122240     0.05300
C1157       C  0.12905494  0.77663092  0.65163181    -0.07000
C1158       C  0.12885665  0.73929600  0.65491505    -0.07700
C1159       C  0.15153654  0.72223457  0.68011628    -0.02300
C1160       C  0.16951488  0.74552040  0.70519059     0.04500
N1161       N  0.18065736  0.73756960  0.74077786     0.67000
H1162       H  0.19501850  0.79383787  0.71322159     0.15900
H1163       H  0.11006474  0.72407406  0.63848814     0.15700
N1164       N  0.10304159  0.79207379  0.62841234     0.74800
O1165       O  0.21350452  0.74367758  0.74859541    -0.38700
O1166       O  0.15783620  0.74471305  0.76510244    -0.38600
O1167       O  0.10488094  0.78597580  0.59500694    -0.39300
O1168       O  0.07385364  0.80408246  0.64161139    -0.39400
C1169       C  0.22521205  0.87271929  0.65239774    -0.11700
C1170       C  0.20511239  0.84168231  0.65873371     0.05300
C1171       C  0.22488354  0.81186305  0.64844481    -0.07000
C1172       C  0.26117293  0.81138158  0.65905908    -0.07700
C1173       C  0.28479435  0.84004957  0.65309604    -0.02300
C1174       C  0.26449182  0.87245448  0.64676287     0.04500
N1175       N  0.28002649  0.90414307  0.63243620     0.67000
H1176       H  0.21036079  0.89699069  0.65099975     0.15900
H1177       H  0.27079171  0.78672232  0.66803862     0.15700
N1178       N  0.21669010  0.79614890  0.61393748     0.74800
O1179       O  0.25963710  0.92516206  0.61622632    -0.38700
O1180       O  0.31332768  0.91178782  0.63502471    -0.38600
O1181       O  0.22869531  0.80999791  0.58582004    -0.39300
O1182       O  0.19678502  0.76925231  0.61102800    -0.39400
C1183       C  0.18164833  0.86492683  0.77292945    -0.11700
C1184       C  0.15977345  0.84008178  0.79116514     0.05300
C1185       C  0.13057779  0.82590391  0.77028429    -0.07000
C1186       C  0.12995325  0.83041189  0.73285838    -0.07700
C1187       C  0.15835229  0.84771361  0.71391273    -0.02300
C1188       C  0.18223671  0.86797524  0.73565861     0.04500
N1189       N  0.20712363  0.89265915  0.72162898     0.67000
H1190       H  0.20053135  0.88155098  0.78798945     0.15900
H1191       H  0.10774937  0.81824393  0.71777523     0.15700
N1192       N  0.09880905  0.81105073  0.78581216     0.74800
O1193       O  0.19549458  0.92201952  0.71206724    -0.38700
O1194       O  0.24026866  0.88971505  0.72988446    -0.38600
O1195       O  0.07631701  0.83134487  0.80106617    -0.39300
O1196       O  0.08743087  0.78184238  0.77378446    -0.39400
C1197       C  0.23145565  0.81649799  0.80311338    -0.11700
C1198       C  0.21447437  0.83552692  0.83100976     0.05300
C1199       C  0.23865431  0.85539686  0.85376349    -0.07000
C1200       C  0.27731035  0.85251048  0.84937892    -0.07700
C1201       C  0.29364318  0.83407284  0.81978800    -0.02300
C1202       C  0.26828519  0.81930222  0.79450330     0.04500
N1203       N  0.27786482  0.80646510  0.75924294     0.67000
H1204       H  0.21466386  0.80043346  0.78530233     0.15900
H1205       H  0.29419873  0.86509442  0.86968102     0.15700
N1206       N  0.22547719  0.87852954  0.88133843     0.74800
O1207       O  0.30616263  0.78889485  0.75343621    -0.38700
O1208       O  0.25665623  0.81207353  0.73339716    -0.38600
O1209       O  0.23323684  0.87274732  0.91370680    -0.39300
O1210       O  0.21457075  0.90852108  0.87298968    -0.39400
C1211       C  0.12819441  0.68136815  0.77849915    -0.11700
C1212       C  0.15850091  0.66629180  0.79578555     0.05300
C1213       C  0.17687897  0.64126960  0.77319117    -0.07000
C1214       C  0.18069722  0.64844300  0.73634451    -0.07700
C1215       C  0.15602589  0.67050837  0.71917009    -0.02300
C1216       C  0.12546796  0.68133363  0.74060688     0.04500
N1217       N  0.09255771  0.69391245  0.72473081     0.67000
H1218       H  0.10617875  0.69292022  0.79345714     0.15900
H1219       H  0.20024012  0.63386142  0.72081114     0.15700
N1220       N  0.18339218  0.60595705  0.78464936     0.74800
O1221       O  0.08618999  0.72628396  0.72533570    -0.38700
O1222       O  0.06619229  0.67290679  0.72000371    -0.38600
O1223       O  0.16164377  0.59237160  0.80654068    -0.39300
O1224       O  0.20194301  0.58527343  0.76515538    -0.39400
C1225       C  0.23117855  0.69018279  0.81359636    -0.11700
C1226       C  0.21309885  0.66731933  0.83627781     0.05300
C1227       C  0.23639838  0.64303295  0.85408466    -0.07000
C1228       C  0.27559004  0.64499933  0.84966699    -0.07700
C1229       C  0.29298074  0.67095950  0.82827833    -0.02300
C1230       C  0.26867987  0.69395130  0.81145277     0.04500
N1231       N  0.28049117  0.72568985  0.79677673     0.67000
H1232       H  0.21514807  0.70872103  0.79925598     0.15900
H1233       H  0.29197061  0.62517600  0.86204943     0.15700
N1234       N  0.22186932  0.61502430  0.87457445     0.74800
O1235       O  0.26672000  0.75324520  0.80931467    -0.38700
O1236       O  0.30463301  0.72696669  0.77292634    -0.38600
O1237       O  0.20974643  0.58821251  0.85814499    -0.39300
O1238       O  0.23220516  0.61195773  0.90667885    -0.39400
C1239       C  0.13207881  0.73321375  0.84393737    -0.11700
C1240       C  0.16520165  0.71492585  0.84843153     0.05300
C1241       C  0.19321844  0.73674335  0.86432088    -0.07000
C1242       C  0.19285985  0.77293644  0.85932116    -0.07700
C1243       C  0.16372836  0.79103836  0.84311009    -0.02300
C1244       C  0.13034498  0.77077286  0.84414880     0.04500
N1245       N  0.09578791  0.78611877  0.85370079     0.67000
H1246       H  0.10694332  0.71833565  0.84417887     0.15900
H1247       H  0.21534300  0.78729323  0.87135853     0.15700
N1248       N  0.21728156  0.72512679  0.89209580     0.74800
O1249       O  0.06651059  0.77075948  0.84438994    -0.38700
O1250       O  0.09423022  0.80847616  0.87901102    -0.38600
O1251       O  0.24872161  0.71459017  0.88406908    -0.39300
O1252       O  0.21299843  0.73811697  0.92330141    -0.39400
C1253       C  0.11567773  0.63211477  0.84758037    -0.11700
C1254       C  0.14608138  0.65098023  0.86202085     0.05300
C1255       C  0.15079113  0.64883308  0.89989243    -0.07000
C1256       C  0.13125325  0.62395513  0.91955079    -0.07700
C1257       C  0.10394832  0.60315272  0.90353935    -0.02300
C1258       C  0.09535719  0.60848653  0.86732486     0.04500
N1259       N  0.06635467  0.58979183  0.84950737     0.67000
H1260       H  0.10707659  0.63413143  0.82009472     0.15900
H1261       H  0.13604802  0.62258376  0.94820008     0.15700
N1262       N  0.16948671  0.67523874  0.92026084     0.74800
O1263       O  0.03561718  0.60414543  0.84634932    -0.38700
O1264       O  0.07360271  0.56301058  0.83046255    -0.38600
O1265       O  0.15115377  0.70159362  0.93016447    -0.39300
O1266       O  0.19651927  0.66668090  0.93911874    -0.39400
C1267       C  0.08936047  0.90435664  0.63994334    -0.11700
C1268       C  0.09347426  0.90216721  0.60292607     0.05300
C1269       C  0.12000709  0.87929619  0.58853622    -0.07000
C1270       C  0.14119830  0.85875746  0.61150646    -0.07700
C1271       C  0.13755329  0.86078737  0.64930774    -0.02300
C1272       C  0.11081006  0.88514377  0.66316731     0.04500
N1273       N  0.10414506  0.89218925  0.70043925     0.67000
H1274       H  0.06982633  0.92248937  0.65162550     0.15900
H1275       H  0.16077961  0.84097915  0.59949532     0.15700
N1276       N  0.12482201  0.87540867  0.55064147     0.74800
O1277       O  0.11972657  0.91829756  0.71522257    -0.38700
O1278       O  0.07467241  0.88124871  0.71384716    -0.38600
O1279       O  0.15095578  0.89105340  0.53571311    -0.39300
O1280       O  0.10925891  0.85021999  0.53426643    -0.39400
C1281       C  0.36949093  0.59156039  0.61677905    -0.11700
C1282       C  0.38928689  0.60507171  0.58825773     0.05300
C1283       C  0.38616326  0.64047186  0.58063766    -0.07000
C1284       C  0.36513871  0.66235049  0.60279806    -0.07700
C1285       C  0.34446804  0.64980009  0.63223786    -0.02300
C1286       C  0.34703333  0.61285985  0.63854410     0.04500
N1287       N  0.33131349  0.59646335  0.66909485     0.67000
H1288       H  0.37204844  0.56406268  0.62278379     0.15900
H1289       H  0.36652763  0.68968401  0.59658071     0.15700
N1290       N  0.40531386  0.65501602  0.55101483     0.74800
O1291       O  0.30396427  0.57664166  0.66440732    -0.38700
O1292       O  0.35180974  0.59096761  0.69566119    -0.38600
O1293       O  0.38801649  0.66253786  0.52291131    -0.39300
O1294       O  0.43774608  0.66569476  0.55516233    -0.39400
C1295       C  0.11372763  0.63571466  0.59467795    -0.11700
C1296       C  0.09357194  0.60879458  0.61049825     0.05300
C1297       C  0.09368370  0.60685323  0.64813941    -0.07000
C1298       C  0.11400932  0.63079776  0.66893329    -0.07700
C1299       C  0.13477270  0.65843248  0.65398075    -0.02300
C1300       C  0.13411603  0.66034457  0.61558425     0.04500
N1301       N  0.15598766  0.68511624  0.59676681     0.67000
H1302       H  0.11421022  0.63734099  0.56565576     0.15900
H1303       H  0.11420715  0.62571662  0.69728659     0.15700
N1304       N  0.07556623  0.57892721  0.66600007     0.74800
O1305       O  0.18777391  0.67643264  0.58723853    -0.38700
O1306       O  0.14014658  0.70868597  0.57952803    -0.38600
O1307       O  0.09191069  0.55028213  0.66977357    -0.39300
O1308       O  0.04752592  0.58537818  0.68461870    -0.39400
C1309       C  0.41038678  0.86490614  0.88390412    -0.11700
C1310       C  0.40053954  0.89990575  0.88710651     0.05300
C1311       C  0.37189491  0.91226056  0.86591035    -0.07000
C1312       C  0.35279523  0.88915720  0.84277249    -0.07700
C1313       C  0.36034317  0.85285031  0.84079378    -0.02300
C1314       C  0.39145696  0.84137051  0.86108387     0.04500
N1315       N  0.40633002  0.80689799  0.85809862     0.67000
H1316       H  0.43358530  0.85567562  0.89906924     0.15900
H1317       H  0.33110613  0.89983818  0.82674392     0.15700
N1318       N  0.36266679  0.94852392  0.86663472     0.74800
O1319       O  0.43175883  0.80131175  0.83591562    -0.38700
O1320       O  0.40358396  0.78700877  0.88457119    -0.38600
O1321       O  0.37598272  0.96841808  0.84337891    -0.39300
O1322       O  0.33664692  0.95917022  0.88609256    -0.39400
C1323       C  0.40275662  0.59949551  0.84988277    -0.11700
C1324       C  0.40120564  0.60392895  0.88703522     0.05300
C1325       C  0.37808568  0.62968926  0.90159062    -0.07000
C1326       C  0.35810749  0.65129555  0.87885506    -0.07700
C1327       C  0.35876452  0.64713420  0.84095555    -0.02300
C1328       C  0.38148406  0.61940867  0.82678304     0.04500
N1329       N  0.38294714  0.60868699  0.78976577     0.67000
H1330       H  0.41955827  0.57887689  0.83835287     0.15900
H1331       H  0.34092803  0.67091223  0.89132906     0.15700
N1332       N  0.37426582  0.63407531  0.93953705     0.74800
O1333       O  0.41220851  0.61410044  0.77283512    -0.38700
O1334       O  0.36358788  0.58285353  0.77982908    -0.38600
O1335       O  0.39167046  0.65814028  0.95594494    -0.39300
O1336       O  0.34905697  0.61797194  0.95539505    -0.39400
C1337       C  0.15352336  0.85126633  0.89542862    -0.11700
C1338       C  0.15140974  0.85753098  0.85813863     0.05300
C1339       C  0.12917931  0.88667530  0.84791256    -0.07000
C1340       C  0.10805627  0.90454271  0.87333578    -0.07700
C1341       C  0.10894523  0.89676384  0.90961972    -0.02300
C1342       C  0.13287459  0.87051375  0.92088859     0.04500
N1343       N  0.13441559  0.86092945  0.95758002     0.67000
H1344       H  0.17030757  0.83016935  0.90491989     0.15900
H1345       H  0.09148905  0.92608049  0.86433820     0.15700
N1346       N  0.12938562  0.90172233  0.81311669     0.74800
O1347       O  0.11260475  0.83780069  0.96841336    -0.38700
O1348       O  0.16289039  0.86789108  0.97553824    -0.38600
O1349       O  0.10077591  0.89964074  0.79421803    -0.39300
O1350       O  0.15138728  0.92657356  0.80761202    -0.39400
C1351       C  0.36817392  0.87845617  0.57239726    -0.11700
C1352       C  0.39876403  0.89577099  0.58689669     0.05300
C1353       C  0.40842497  0.88933395  0.62269822    -0.07000
C1354       C  0.38543681  0.86954865  0.64412275    -0.07700
C1355       C  0.35275683  0.85379681  0.63104239    -0.02300
C1356       C  0.34587366  0.85692487  0.59338318     0.04500
N1357       N  0.31591018  0.83991379  0.57554756     0.67000
H1358       H  0.36101789  0.88183820  0.54446216     0.15900
H1359       H  0.39450870  0.86685316  0.67132841     0.15700
N1360       N  0.44177926  0.90238925  0.63807551     0.74800
O1361       O  0.28701075  0.85702097  0.57095879    -0.38700
O1362       O  0.32292954  0.81524127  0.55357250    -0.38600
O1363       O  0.44096148  0.92752656  0.66061440    -0.39300
O1364       O  0.47042591  0.88439863  0.63496740    -0.39400
C1365       C  0.91248517  0.42652666  0.07389721     0.43000
N1366       N  0.95072202  0.46675984  0.06059831     0.01900
C1367       C  0.95669252  0.06519932  0.41006582    -0.06000
H1368       H  0.97589291  0.43124513  0.38544179     0.07400
C1369       C  0.59077282  0.43115098  0.46234430    -0.06300
Co1370     Co  0.93253292  0.50071697  0.49621839     0.74200
N1371       N  0.96425206  0.46126945  0.43389504    -0.25500
Co1372     Co  0.50500511  0.49477435  0.43129102     0.74100
C1373       C  0.58011683  0.41260663  0.42914946     0.43100
N1374       N  0.55934395  0.47249003  0.04357189     0.01500
N1375       N  0.54350912  0.45565402  0.43898332     0.01600
N1376       N  0.90878342  0.06464482  0.44823196    -0.46300
H1377       H  0.87934493  0.43482858  0.02203485     0.07400
N1378       N  0.93580840  0.46218509  0.45561919     0.01900
N1379       N  0.54607587  0.04308977  0.43635209     0.01700
C1380       C  0.58389702  0.08380986  0.42462210     0.43300
N1381       N  0.53104151  0.47240225  0.06531933    -0.24900
C1382       C  0.90350675  0.06697645  0.03729576    -0.05900
N1383       N  0.94230816  0.44415289  0.08561646    -0.46000
N1384       N  0.55492885  0.06580873  0.41156995    -0.46300
C1385       C  0.91285306  0.08574566  0.07064468     0.43000
N1386       N  0.93218744  0.03941055  0.45527849     0.01900
N1387       N  0.53081053  0.03827615  0.07141366    -0.25000
N1388       N  0.92782479  0.46562980  0.03319072    -0.25500
N1389       N  0.55928470  0.03859327  0.04968514     0.01600
H1390       H  0.51590677  0.06997364  0.11762858     0.07400
H1391       H  0.61598351  0.07582456  0.47692566     0.07500
N1392       N  0.96012737  0.03883632  0.43293731    -0.25500
N1393       N  0.56677044  0.45741403  0.46609290    -0.25100
N1394       N  0.95146794  0.04422568  0.06125189     0.01900
C1395       C  0.92222517  0.42244025  0.41604205     0.43300
C1396       C  0.53604087  0.44755691  0.08964836    -0.06400
N1397       N  0.56823014  0.04451031  0.46435484    -0.25100
H1398       H  0.61412136  0.42694584  0.47950203     0.07500
N1399       N  0.90963519  0.43987932  0.44545225    -0.46300
H1400       H  0.51763399  0.44210189  0.11150053     0.07500
C1401       C  0.56943164  0.08139523  0.08736443     0.43200
C1402       C  0.90269878  0.44069174  0.03899273    -0.05900
Co1403     Co  0.99217046  0.00641433  0.06764443     0.73800
N1404       N  0.58408354  0.44884108  0.05167492    -0.46100
C1405       C  0.92303908  0.08270426  0.42069481     0.43400
N1406       N  0.94229602  0.06952668  0.08448603    -0.46000
Co1407     Co  0.56458144  0.99950513  0.00919010     0.73900
C1408       C  0.59298910  0.06985793  0.45952788    -0.06400
C1409       C  0.95834730  0.43663154  0.40822447    -0.05900
N1410       N  0.92889071  0.04194936  0.03361147    -0.25500
N1411       N  0.55087341  0.42970078  0.41615825    -0.46200
H1412       H  0.97494574  0.07082338  0.38809617     0.07400
C1413       C  0.53470441  0.06431881  0.09593312    -0.06300
Cl1414     Cl  0.49763227  0.99902170  0.00165637    -0.49300
C1415       C  0.57132666  0.43175075  0.08040134     0.43200
H1416       H  0.88034582  0.07048904  0.01971269     0.07400
N1417       N  0.58312815  0.06380807  0.05840368    -0.46100
C1418       C  0.67439647  0.17487307  0.33594814    -0.01900
C1419       C  0.67144859  0.33184405  0.32840577    -0.01900
C1420       C  0.65672705  0.33618729  0.17015582    -0.01900
C1421       C  0.65787627  0.18019704  0.17817071    -0.01900
C1422       C  0.83828756  0.16974939  0.32121936    -0.01900
C1423       C  0.82136606  0.17657136  0.16482378    -0.01900
C1424       C  0.82231369  0.33404365  0.16391288    -0.01900
C1425       C  0.83747381  0.32777306  0.31892572    -0.01900
C1426       C  0.86774771  0.33655706  0.21967314    -0.11700
C1427       C  0.83257829  0.34394648  0.20525037     0.05300
C1428       C  0.81300966  0.36688671  0.22935326    -0.07000
C1429       C  0.82076242  0.36773145  0.26627425    -0.07700
C1430       C  0.84582738  0.34439549  0.28098652    -0.02300
C1431       C  0.87480132  0.33676347  0.25719726     0.04500
N1432       N  0.91178488  0.33635534  0.26970551     0.67000
H1433       H  0.89070396  0.33482109  0.20188933     0.15900
H1434       H  0.80300928  0.38314225  0.28352610     0.15700
N1435       N  0.78777727  0.39230355  0.21844696     0.74800
O1436       O  0.93439723  0.31548431  0.25547628    -0.38700
O1437       O  0.92364062  0.36204520  0.28825500    -0.38600
O1438       O  0.75508971  0.38793558  0.22791052    -0.39300
O1439       O  0.79963646  0.42325227  0.21631935    -0.39400
C1440       C  0.85009619  0.23861834  0.18384756    -0.11700
C1441       C  0.83138951  0.21697073  0.15835113     0.05300
C1442       C  0.81974438  0.23491238  0.12688301    -0.07000
C1443       C  0.81928020  0.27205887  0.12665497    -0.07700
C1444       C  0.83390155  0.29331409  0.15529946    -0.02300
C1445       C  0.85861872  0.27386281  0.17643850     0.04500
N1446       N  0.89702369  0.28116917  0.17301366     0.67000
H1447       H  0.86270634  0.22801243  0.20716068     0.15900
H1448       H  0.80198093  0.28276132  0.10658650     0.15700
N1449       N  0.80710050  0.21632613  0.09529105     0.74800
O1450       O  0.91949229  0.26920643  0.19526965    -0.38700
O1451       O  0.90903923  0.29580829  0.14528421    -0.38600
O1452       O  0.77362004  0.20919472  0.09170673    -0.39300
O1453       O  0.82679860  0.21657245  0.06750272    -0.39400
C1454       C  0.87239989  0.16110294  0.25745977    -0.11700
C1455       C  0.84213467  0.15573463  0.28019953     0.05300
C1456       C  0.81333785  0.13814654  0.26132863    -0.07000
C1457       C  0.80430708  0.15033250  0.22708702    -0.07700
C1458       C  0.83116683  0.16533471  0.20467827    -0.02300
C1459       C  0.86739494  0.16482399  0.21956251     0.04500
N1460       N  0.89883620  0.16486845  0.19675269     0.67000
H1461       H  0.89960056  0.16047591  0.26848257     0.15900
H1462       H  0.77896740  0.14079824  0.21560610     0.15700
N1463       N  0.81255941  0.10068689  0.26286014     0.74800
O1464       O  0.91890167  0.19169816  0.19524559    -0.38700
O1465       O  0.91106571  0.13601915  0.18505454    -0.38600
O1466       O  0.78490136  0.08391149  0.25149696    -0.39300
O1467       O  0.84281345  0.08501370  0.26267795    -0.39400
C1468       C  0.83501222  0.23110468  0.35546241    -0.11700
C1469       C  0.85096515  0.21047443  0.32731879     0.05300
C1470       C  0.87338168  0.23056151  0.30389693    -0.07000
C1471       C  0.86685486  0.26668753  0.29978223    -0.07700
C1472       C  0.84558494  0.28700473  0.32392068    -0.02300
C1473       C  0.83303331  0.26839938  0.35461303     0.04500
N1474       N  0.81862859  0.28687626  0.38541972     0.67000
H1475       H  0.82280745  0.21792127  0.37789945     0.15900
H1476       H  0.88155980  0.27861316  0.27876100     0.15700
N1477       N  0.90792155  0.21816306  0.29100145     0.74800
O1478       O  0.78582330  0.28265473  0.39455232    -0.38700
O1479       O  0.83989891  0.30306025  0.40674102    -0.38600
O1480       O  0.91933984  0.22762715  0.26074736    -0.39300
O1481       O  0.93077586  0.20645136  0.31299549    -0.39400
C1482       C  0.75657358  0.14579513  0.14651485    -0.11700
C1483       C  0.77815829  0.17469775  0.15896645     0.05300
C1484       C  0.75747395  0.20330242  0.17109996    -0.07000
C1485       C  0.72124125  0.20632846  0.16156144    -0.07700
C1486       C  0.69882594  0.17667617  0.16327715    -0.02300
C1487       C  0.71771449  0.14508307  0.15258422     0.04500
N1488       N  0.69871737  0.11257478  0.14753344     0.67000
H1489       H  0.76910282  0.12336694  0.13416222     0.15900
H1490       H  0.71120293  0.23225927  0.16346084     0.15700
N1491       N  0.76543632  0.21683706  0.20554080     0.74800
O1492       O  0.68931744  0.10303885  0.11618415    -0.38700
O1493       O  0.70107004  0.08976921  0.17138196    -0.38600
O1494       O  0.77493965  0.24821767  0.20932973    -0.39300
O1495       O  0.75077183  0.20137232  0.23132707    -0.39400
C1496       C  0.66963043  0.27844922  0.19559136    -0.11700
C1497       C  0.64919411  0.29543816  0.16956160     0.05300
C1498       C  0.62447321  0.27387707  0.14903470    -0.07000
C1499       C  0.62443462  0.23676407  0.15368582    -0.07700
C1500       C  0.64679586  0.22051050  0.17974503    -0.02300
C1501       C  0.66367109  0.24444798  0.20481177     0.04500
N1502       N  0.67292103  0.23720133  0.24103696     0.67000
H1503       H  0.68822134  0.29355881  0.21264166     0.15900
H1504       H  0.60645781  0.22099502  0.13695606     0.15700
N1505       N  0.60031817  0.28800936  0.12292151     0.74800
O1506       O  0.70470886  0.24518475  0.25123625    -0.38700
O1507       O  0.64786750  0.24234589  0.26360203    -0.38600
O1508       O  0.61168582  0.29251616  0.09139351    -0.39300
O1509       O  0.56635550  0.28548712  0.12787851    -0.39400
C1510       C  0.71982911  0.37126199  0.15838857    -0.11700
C1511       C  0.69917330  0.33985257  0.15921017     0.05300
C1512       C  0.71952721  0.31085739  0.14656367    -0.07000
C1513       C  0.75611937  0.30898425  0.15618394    -0.07700
C1514       C  0.77898233  0.33889976  0.15774040    -0.02300
C1515       C  0.75876410  0.37117266  0.15311195     0.04500
N1516       N  0.77549940  0.40359832  0.14273382     0.67000
H1517       H  0.70570040  0.39583018  0.15811403     0.15900
H1518       H  0.76569393  0.28313486  0.15953156     0.15700
N1519       N  0.70633324  0.28835568  0.11770809     0.74800
O1520       O  0.76399202  0.43187025  0.15662747    -0.38700
O1521       O  0.78976653  0.40522666  0.11205318    -0.38600
O1522       O  0.72492187  0.26236683  0.10741630    -0.39300
O1523       O  0.68294814  0.29985785  0.09620641    -0.39400
C1524       C  0.67969217  0.36476945  0.26732986    -0.11700
C1525       C  0.65927504  0.34014822  0.28802861     0.05300
C1526       C  0.62812951  0.32622090  0.27004219    -0.07000
C1527       C  0.62553796  0.32795320  0.23254606    -0.07700
C1528       C  0.64978909  0.34785244  0.21114341    -0.02300
C1529       C  0.67157184  0.37193862  0.23094734     0.04500
N1530       N  0.67709472  0.40689170  0.21817133     0.67000
H1531       H  0.70011809  0.38099002  0.28063229     0.15900
H1532       H  0.60500865  0.31155852  0.21970894     0.15700
N1533       N  0.59670862  0.31392078  0.28846613     0.74800
O1534       O  0.65576066  0.41861556  0.19469642    -0.38700
O1535       O  0.69662805  0.42852032  0.23584694    -0.38600
O1536       O  0.57960145  0.33523567  0.30850351    -0.39300
O1537       O  0.57986483  0.28738861  0.27593820    -0.39400
C1538       C  0.73219858  0.31771167  0.30115077    -0.11700
C1539       C  0.71462402  0.33686331  0.32839598     0.05300
C1540       C  0.73816445  0.35328278  0.35444317    -0.07000
C1541       C  0.77665357  0.34783974  0.35287151    -0.07700
C1542       C  0.79408019  0.33033164  0.32340305    -0.02300
C1543       C  0.76969340  0.31730457  0.29590643     0.04500
N1544       N  0.78079504  0.30488071  0.26076541     0.67000
H1545       H  0.71569736  0.30312551  0.28187663     0.15900
H1546       H  0.79267445  0.35790879  0.37519736     0.15700
N1547       N  0.72437087  0.37466377  0.38320196     0.74800
O1548       O  0.80965124  0.28779335  0.25568851    -0.38700
O1549       O  0.76022765  0.31027705  0.23423199    -0.38600
O1550       O  0.72987217  0.36587992  0.41523744    -0.39300
O1551       O  0.71526674  0.40573261  0.37703428    -0.39400
C1552       C  0.62908208  0.17390244  0.27950778    -0.11700
C1553       C  0.66269100  0.16463322  0.29524540     0.05300
C1554       C  0.68521781  0.14421779  0.27150304    -0.07000
C1555       C  0.68409098  0.14954242  0.23448567    -0.07700
C1556       C  0.65561035  0.16816614  0.21850492    -0.02300
C1557       C  0.62503464  0.17548685  0.24158537     0.04500
N1558       N  0.59086836  0.18724795  0.22756928     0.67000
H1559       H  0.60606599  0.18097955  0.29594149     0.15900
H1560       H  0.70529746  0.13750184  0.21876307     0.15700
N1561       N  0.70430304  0.11398710  0.28345299     0.74800
O1562       O  0.58350839  0.21944294  0.22897553    -0.38700
O1563       O  0.56488862  0.16559683  0.22416959    -0.38600
O1564       O  0.69096130  0.08416503  0.27602058    -0.39300
O1565       O  0.73775704  0.11610310  0.29081365    -0.39400
C1566       C  0.73549038  0.18844181  0.31135195    -0.11700
C1567       C  0.71687741  0.16938538  0.33718233     0.05300
C1568       C  0.73925510  0.15143317  0.36201848    -0.07000
C1569       C  0.77825814  0.15369995  0.35916182    -0.07700
C1570       C  0.79592234  0.16994853  0.32967282    -0.02300
C1571       C  0.77297951  0.19011255  0.30817239     0.04500
N1572       N  0.78624397  0.22017157  0.29084348     0.67000
H1573       H  0.71994418  0.20508558  0.29441512     0.15900
H1574       H  0.79438619  0.14250753  0.38027366     0.15700
N1575       N  0.72376613  0.13212846  0.39066436     0.74800
O1576       O  0.77203078  0.24881150  0.29964674    -0.38700
O1577       O  0.80934879  0.21865976  0.26584394    -0.38600
O1578       O  0.71465665  0.10060209  0.38499888    -0.39300
O1579       O  0.72800852  0.14317119  0.42259966    -0.39400
C1580       C  0.63533965  0.23307696  0.33827963    -0.11700
C1581       C  0.66865965  0.21571637  0.34442673     0.05300
C1582       C  0.69573396  0.23802477  0.36093558    -0.07000
C1583       C  0.69444937  0.27409192  0.35669817    -0.07700
C1584       C  0.66527176  0.29139992  0.33978454    -0.02300
C1585       C  0.63243484  0.27035950  0.34009107     0.04500
N1586       N  0.59873153  0.28349006  0.35477443     0.67000
H1587       H  0.61054514  0.21780693  0.33806507     0.15900
H1588       H  0.71651342  0.28870642  0.36919413     0.15700
N1589       N  0.72196453  0.22612000  0.38640589     0.74800
O1590       O  0.56892739  0.27007393  0.34407588    -0.38700
O1591       O  0.59917597  0.29725464  0.38583216    -0.38600
O1592       O  0.75472293  0.22424394  0.37663202    -0.39300
O1593       O  0.71626638  0.23314908  0.41916066    -0.39400
C1594       C  0.64192840  0.11742818  0.34959716    -0.11700
C1595       C  0.65204776  0.15148686  0.36196540     0.05300
C1596       C  0.63959717  0.16157227  0.39727473    -0.07000
C1597       C  0.61759469  0.13882673  0.41693803    -0.07700
C1598       C  0.60712830  0.10630663  0.40306746    -0.02300
C1599       C  0.61973386  0.09531021  0.36931724     0.04500
N1600       N  0.61139985  0.06109906  0.35515738     0.67000
H1601       H  0.65063590  0.10724823  0.32401735     0.15900
H1602       H  0.60839089  0.14687320  0.44353726     0.15700
N1603       N  0.64997143  0.19326291  0.41560019     0.74800
O1604       O  0.58604241  0.05709231  0.33242231    -0.38700
O1605       O  0.63317877  0.03630102  0.36051450    -0.38600
O1606       O  0.62906038  0.21922263  0.41331964    -0.39300
O1607       O  0.66822837  0.19042418  0.44417120    -0.39400
C1608       C  0.57555020  0.38989951  0.13026581    -0.11700
C1609       C  0.59175317  0.40485415  0.10037314     0.05300
C1610       C  0.62748454  0.39470542  0.09120346    -0.07000
C1611       C  0.64633502  0.37110288  0.11251928    -0.07700
C1612       C  0.63158390  0.35762948  0.14463683    -0.02300
C1613       C  0.59456972  0.36729781  0.15257190     0.04500
N1614       N  0.57570870  0.35730649  0.18426171     0.67000
H1615       H  0.54792942  0.39683281  0.13768425     0.15900
H1616       H  0.67346535  0.36449954  0.10359126     0.15700
N1617       N  0.64598163  0.40911550  0.06112016     0.74800
O1618       O  0.57256750  0.37973933  0.20948172    -0.38700
O1619       O  0.55236822  0.33294789  0.18194562    -0.38600
O1620       O  0.66708153  0.43502359  0.06597333    -0.39300
O1621       O  0.64741350  0.39175966  0.03192713    -0.39400
C1622       C  0.86307497  0.09379194  0.11512525    -0.11700
C1623       C  0.88821316  0.10874012  0.09190125     0.05300
C1624       C  0.89111247  0.14519444  0.09119201    -0.07000
C1625       C  0.86947218  0.16608691  0.11407914    -0.07700
C1626       C  0.84320405  0.15184610  0.13798969    -0.02300
C1627       C  0.84152036  0.11430131  0.13861528     0.04500
N1628       N  0.82453440  0.09589730  0.16712370     0.67000
H1629       H  0.86193058  0.06553504  0.11690583     0.15900
H1630       H  0.87526630  0.19373121  0.11366466     0.15700
N1631       N  0.91672352  0.16153536  0.06789934     0.74800
O1632       O  0.79791144  0.07582713  0.15986667    -0.38700
O1633       O  0.84494706  0.08778853  0.19282450    -0.38600
O1634       O  0.90601802  0.17314407  0.03824761    -0.39300
O1635       O  0.94821496  0.16943213  0.07937273    -0.39400
C1636       C  0.61034668  0.13446622  0.09408690    -0.11700
C1637       C  0.59009447  0.10762919  0.10998256     0.05300
C1638       C  0.59079996  0.10546045  0.14759780    -0.07000
C1639       C  0.61204641  0.12881933  0.16825130    -0.07700
C1640       C  0.63236808  0.15667669  0.15330076    -0.02300
C1641       C  0.63115785  0.15888656  0.11487080     0.04500
N1642       N  0.65251957  0.18400534  0.09585738     0.67000
H1643       H  0.61046682  0.13626043  0.06507443     0.15900
H1644       H  0.61315566  0.12324799  0.19645298     0.15700
N1645       N  0.57210513  0.07797639  0.16555308     0.74800
O1646       O  0.68475161  0.17626160  0.08696779    -0.38700
O1647       O  0.63619374  0.20683319  0.07799925    -0.38600
O1648       O  0.58795321  0.04914466  0.16974662    -0.39300
O1649       O  0.54398164  0.08500892  0.18382981    -0.39400
C1650       C  0.91274220  0.36435672  0.38612871    -0.11700
C1651       C  0.90040750  0.39836046  0.39268619     0.05300
C1652       C  0.86889531  0.40951272  0.37494705    -0.07000
C1653       C  0.85006304  0.38650705  0.35153156    -0.07700
C1654       C  0.86015690  0.35099258  0.34637583    -0.02300
C1655       C  0.89362886  0.34069783  0.36338324     0.04500
N1656       N  0.91042607  0.30741137  0.35697968     0.67000
H1657       H  0.93791630  0.35604342  0.39860447     0.15900
H1658       H  0.82676251  0.39682245  0.33760724     0.15700
N1659       N  0.85660059  0.44478175  0.37899049     0.74800
O1660       O  0.93601067  0.30522831  0.33441384    -0.38700
O1661       O  0.90891236  0.28491205  0.38121730    -0.38600
O1662       O  0.86553321  0.46695027  0.35593651    -0.39300
O1663       O  0.83151621  0.45193221  0.40111477    -0.39400
C1664       C  0.87083738  0.09058549  0.38049192    -0.11700
C1665       C  0.90131152  0.10504466  0.39729099     0.05300
C1666       C  0.91175403  0.13914509  0.38940430    -0.07000
C1667       C  0.89013890  0.15903003  0.36660627    -0.07700
C1668       C  0.85956796  0.14493229  0.34739000    -0.02300
C1669       C  0.85104323  0.10844999  0.35438754     0.04500
N1670       N  0.82453057  0.08697917  0.33551795     0.67000
H1671       H  0.86346593  0.06373732  0.38616856     0.15900
H1672       H  0.89849359  0.18586146  0.36431708     0.15700
N1673       N  0.94438611  0.15411928  0.40437237     0.74800
O1674       O  0.83579442  0.05808426  0.32282694    -0.38700
O1675       O  0.79178795  0.08735011  0.34578022    -0.38600
O1676       O  0.97333564  0.15390696  0.38601351    -0.39300
O1677       O  0.94268964  0.17291095  0.43260705    -0.39400
C1678       C  0.65093961  0.34852580  0.39227958    -0.11700
C1679       C  0.65164163  0.35696687  0.35550346     0.05300
C1680       C  0.63156185  0.38732552  0.34564742    -0.07000
C1681       C  0.60757686  0.40318245  0.36985336    -0.07700
C1682       C  0.60488882  0.39258825  0.40525336    -0.02300
C1683       C  0.62798935  0.36593069  0.41696449     0.04500
N1684       N  0.62706128  0.35464443  0.45318592     0.67000
H1685       H  0.66703760  0.32699682  0.40185017     0.15900
H1686       H  0.59245744  0.42579942  0.36119483     0.15700
N1687       N  0.63822361  0.40604904  0.31358683     0.74800
O1688       O  0.60227146  0.33369422  0.46255709    -0.38700
O1689       O  0.65543282  0.35796334  0.47223524    -0.38600
O1690       O  0.61261905  0.40922723  0.29116408    -0.39300
O1691       O  0.66409296  0.42802780  0.31361707    -0.39400
C1692       C  0.86730305  0.37831314  0.07990833    -0.11700
C1693       C  0.89040249  0.40303120  0.09630075     0.05300
C1694       C  0.89051876  0.40625138  0.13387063    -0.07000
C1695       C  0.86698554  0.38580596  0.15401585    -0.07700
C1696       C  0.84470900  0.35870266  0.13862253    -0.02300
C1697       C  0.84482819  0.35616041  0.10003738     0.04500
N1698       N  0.82065763  0.33385665  0.07977622     0.67000
H1699       H  0.86632185  0.37631100  0.05082929     0.15900
H1700       H  0.86700214  0.39232536  0.18229318     0.15700
N1701       N  0.91420193  0.43048547  0.15242567     0.74800
O1702       O  0.78699476  0.34064135  0.07883007    -0.38700
O1703       O  0.83379018  0.31383455  0.05569609    -0.38600
O1704       O  0.90154649  0.45883286  0.16498635    -0.39300
O1705       O  0.94529868  0.42048362  0.16246150    -0.39400
C1706       C  0.91477763  0.42261195  0.57604782     0.43000
N1707       N  0.95220762  0.46392677  0.56329879     0.01900
C1708       C  0.96260680  0.06071422  0.90725556    -0.06000
H1709       H  0.97530800  0.42765569  0.88485049     0.07400
C1710       C  0.59055682  0.44066196  0.96354011    -0.06300
Co1711     Co  0.93196908  0.50209219  0.99252749     0.74200
N1712       N  0.96406445  0.46046475  0.93153374    -0.25500
Co1713     Co  0.50381104  0.50165732  0.92956204     0.74100
C1714       C  0.58013718  0.42021834  0.93160005     0.43100
N1715       N  0.55902522  0.46169303  0.54476373     0.01500
N1716       N  0.54459511  0.46453843  0.93731052     0.01600
N1717       N  0.91435313  0.06106473  0.94511361    -0.46300
H1718       H  0.88082188  0.43185263  0.52481142     0.07400
N1719       N  0.93574525  0.46249944  0.95339142     0.01900
N1720       N  0.54652230  0.03623102  0.94195417     0.01700
C1721       C  0.58513502  0.07657838  0.93063665     0.43300
N1722       N  0.53065157  0.46289374  0.56648659    -0.24900
C1723       C  0.89834357  0.06521485  0.54016983    -0.05900
N1724       N  0.94463103  0.44033718  0.58757537    -0.46000
N1725       N  0.55568175  0.05928880  0.91750912    -0.46300
C1726       C  0.90768873  0.08240821  0.57429170     0.43000
N1727       N  0.93862848  0.03736780  0.95414061     0.01900
N1728       N  0.53112383  0.04548370  0.56634339    -0.25000
N1729       N  0.92891234  0.46322910  0.53618988    -0.25500
N1730       N  0.55973247  0.04660532  0.54484205     0.01600
H1731       H  0.51578141  0.07477223  0.61386248     0.07400
H1732       H  0.61735114  0.06714803  0.98259173     0.07500
N1733       N  0.96693020  0.03617445  0.93217472    -0.25500
N1734       N  0.56698666  0.46734488  0.96505966    -0.25100
N1735       N  0.94695428  0.04217653  0.56264329     0.01900
C1736       C  0.92196476  0.42054584  0.91662072     0.43300
C1737       C  0.53450752  0.43784143  0.59079706    -0.06400
N1738       N  0.56887538  0.03682078  0.96979954    -0.25100
H1739       H  0.61276467  0.43647964  0.98208583     0.07500
N1740       N  0.90965516  0.43957558  0.94496740    -0.46300
H1741       H  0.51614174  0.43326850  0.61294122     0.07500
C1742       C  0.56955512  0.08754437  0.58476004     0.43200
C1743       C  0.90420999  0.43773044  0.54171152    -0.05900
Co1744     Co  0.98881044  0.00522895  0.56686045     0.73800
N1745       N  0.58278636  0.43710557  0.55309741    -0.46100
C1746       C  0.92787246  0.07739323  0.91625788     0.43400
N1747       N  0.93760419  0.06625011  0.58710965    -0.46000
Co1748     Co  0.56549520  0.00754678  0.50409628     0.73900
C1749       C  0.59428678  0.06169298  0.96512365    -0.06400
C1750       C  0.95795182  0.43439601  0.90741522    -0.05900
N1751       N  0.92410042  0.04078554  0.53515570    -0.25500
N1752       N  0.55216325  0.43724467  0.91613150    -0.46200
H1753       H  0.98044831  0.06496966  0.88462461     0.07400
C1754       C  0.53463762  0.07043100  0.59193896    -0.06300
Cl1755     Cl  0.49890558  0.00562354  0.49622693    -0.49300
C1756       C  0.56909035  0.42050448  0.58176039     0.43200
H1757       H  0.87490989  0.06910446  0.52303735     0.07400
N1758       N  0.58367336  0.07121464  0.55514808    -0.46100
C1759       C  0.67010113  0.17215266  0.84170648    -0.01900
C1760       C  0.66853500  0.32985700  0.83778737    -0.01900
C1761       C  0.65925787  0.33692662  0.67961741    -0.01900
C1762       C  0.65599419  0.18013980  0.68364654    -0.01900
C1763       C  0.83471861  0.16718326  0.82698439    -0.01900
C1764       C  0.81898934  0.17382563  0.66968733    -0.01900
C1765       C  0.82505565  0.33130144  0.66823503    -0.01900
C1766       C  0.83343071  0.32534623  0.82468204    -0.01900
C1767       C  0.86717863  0.32991686  0.72695817    -0.11700
C1768       C  0.83483685  0.34142825  0.70973078     0.05300
C1769       C  0.81728604  0.36809363  0.73136694    -0.07000
C1770       C  0.81766615  0.36447584  0.76924996    -0.07700
C1771       C  0.84197998  0.34111453  0.78619720    -0.02300
C1772       C  0.87232867  0.33284247  0.76447408     0.04500
N1773       N  0.90837002  0.32996071  0.77914682     0.67000
H1774       H  0.89072087  0.32362926  0.71150013     0.15900
H1775       H  0.79947546  0.38053082  0.78536350     0.15700
N1776       N  0.81489093  0.40361969  0.71937313     0.74800
O1777       O  0.93029230  0.30776242  0.76598473    -0.38700
O1778       O  0.92100020  0.35497039  0.79816239    -0.38600
O1779       O  0.79384042  0.42475157  0.73546802    -0.39300
O1780       O  0.84271211  0.41679131  0.70497873    -0.39400
C1781       C  0.85333715  0.23439249  0.68410694    -0.11700
C1782       C  0.82945915  0.21403012  0.66206514     0.05300
C1783       C  0.81401596  0.23286842  0.63265522    -0.07000
C1784       C  0.81485537  0.26995292  0.63295102    -0.07700
C1785       C  0.83398100  0.29019639  0.65944655    -0.02300
C1786       C  0.86098909  0.26993925  0.67685666     0.04500
N1787       N  0.89894906  0.27839443  0.67179686     0.67000
H1788       H  0.87001263  0.22241219  0.70379551     0.15900
H1789       H  0.79656937  0.28229091  0.61467486     0.15700
N1790       N  0.79466214  0.21543665  0.60378561     0.74800
O1791       O  0.92291554  0.26607059  0.69231395    -0.38700
O1792       O  0.90904402  0.29406299  0.64397270    -0.38600
O1793       O  0.76110734  0.22150039  0.59963776    -0.39300
O1794       O  0.81248296  0.20416877  0.57701033    -0.39400
C1795       C  0.86928809  0.15862974  0.76331472    -0.11700
C1796       C  0.83852943  0.15423126  0.78568839     0.05300
C1797       C  0.81020565  0.13627485  0.76679254    -0.07000
C1798       C  0.80160227  0.14813804  0.73229310    -0.07700
C1799       C  0.82881860  0.16277893  0.70984880    -0.02300
C1800       C  0.86495793  0.16157927  0.72515753     0.04500
N1801       N  0.89675735  0.15905851  0.70278318     0.67000
H1802       H  0.89629177  0.15779725  0.77489161     0.15900
H1803       H  0.77626888  0.13862372  0.72078677     0.15700
N1804       N  0.81011940  0.09883075  0.76879726     0.74800
O1805       O  0.92180762  0.18170749  0.70583353    -0.38700
O1806       O  0.90456154  0.12972733  0.68873057    -0.38600
O1807       O  0.78318491  0.08138724  0.75676794    -0.39300
O1808       O  0.84063768  0.08365963  0.77029412    -0.39400
C1809       C  0.83113084  0.22836431  0.86184348    -0.11700
C1810       C  0.84768738  0.20774046  0.83393253     0.05300
C1811       C  0.86911063  0.22822024  0.80994446    -0.07000
C1812       C  0.86116441  0.26378472  0.80534928    -0.07700
C1813       C  0.84085596  0.28436871  0.82991385    -0.02300
C1814       C  0.82870462  0.26571938  0.86082770     0.04500
N1815       N  0.81322113  0.28401439  0.89119928     0.67000
H1816       H  0.81830765  0.21517350  0.88399614     0.15900
H1817       H  0.87350065  0.27471079  0.78228968     0.15700
N1818       N  0.90322785  0.21677240  0.79510819     0.74800
O1819       O  0.78018539  0.27949152  0.89930334    -0.38700
O1820       O  0.83342726  0.30126257  0.91266370    -0.38600
O1821       O  0.91101915  0.22480921  0.76331460    -0.39300
O1822       O  0.92933549  0.21061363  0.81610497    -0.39400
C1823       C  0.75373891  0.14416343  0.65128812    -0.11700
C1824       C  0.77580263  0.17241631  0.66443837     0.05300
C1825       C  0.75576628  0.20113302  0.67726779    -0.07000
C1826       C  0.71985004  0.20522089  0.66754182    -0.07700
C1827       C  0.69682089  0.17602234  0.66886907    -0.02300
C1828       C  0.71489275  0.14417498  0.65745006     0.04500
N1829       N  0.69507582  0.11221765  0.65178999     0.67000
H1830       H  0.76592653  0.12163562  0.63864474     0.15900
H1831       H  0.71068645  0.23148105  0.66937440     0.15700
N1832       N  0.76406172  0.21403968  0.71182485     0.74800
O1833       O  0.68705877  0.10253491  0.62011146    -0.38700
O1834       O  0.69472313  0.08988393  0.67622337    -0.38600
O1835       O  0.77939185  0.24320960  0.71600745    -0.39300
O1836       O  0.74778308  0.20009855  0.73761318    -0.39400
C1837       C  0.66948545  0.27822986  0.70479836    -0.11700
C1838       C  0.64938972  0.29648439  0.67965473     0.05300
C1839       C  0.62284808  0.27609043  0.65995421    -0.07000
C1840       C  0.62272412  0.23859124  0.66227207    -0.07700
C1841       C  0.64600124  0.22082766  0.68642784    -0.02300
C1842       C  0.66412324  0.24346205  0.71167062     0.04500
N1843       N  0.67261856  0.23431703  0.74722277     0.67000
H1844       H  0.68837432  0.29238873  0.72223146     0.15900
H1845       H  0.60380464  0.22375666  0.64559377     0.15700
N1846       N  0.59642284  0.29203393  0.63749551     0.74800
O1847       O  0.70304895  0.24415051  0.75964070    -0.38700
O1848       O  0.64598817  0.23603155  0.76822654    -0.38600
O1849       O  0.59603957  0.28478453  0.60425056    -0.39300
O1850       O  0.56891870  0.30641150  0.65172259    -0.39400
C1851       C  0.72154987  0.36984842  0.65795139    -0.11700
C1852       C  0.70114034  0.33925594  0.66589519     0.05300
C1853       C  0.72111031  0.30900861  0.65726200    -0.07000
C1854       C  0.75760045  0.30894228  0.66790071    -0.07700
C1855       C  0.78132545  0.33788023  0.66308870    -0.02300
C1856       C  0.76103708  0.36932847  0.65383692     0.04500
N1857       N  0.77708362  0.39903111  0.63652905     0.67000
H1858       H  0.70700970  0.39413532  0.65477674     0.15900
H1859       H  0.76738742  0.28404825  0.67485419     0.15700
N1860       N  0.71331706  0.29144183  0.62351541     0.74800
O1861       O  0.75882960  0.41503699  0.61331737    -0.38700
O1862       O  0.80771256  0.41130023  0.64554493    -0.38600
O1863       O  0.73019085  0.30035531  0.59561872    -0.39300
O1864       O  0.68895158  0.26818286  0.62070448    -0.39400
C1865       C  0.68289941  0.36196994  0.77805178    -0.11700
C1866       C  0.65748274  0.34194929  0.79795727     0.05300
C1867       C  0.62382883  0.33653920  0.77916921    -0.07000
C1868       C  0.62464821  0.33458269  0.74097506    -0.07700
C1869       C  0.65437488  0.34813286  0.72066421    -0.02300
C1870       C  0.68046815  0.36670608  0.74116793     0.04500
N1871       N  0.70446209  0.39151658  0.72615956     0.67000
H1872       H  0.70598414  0.37455818  0.79111433     0.15900
H1873       H  0.60101924  0.32429109  0.72665561     0.15700
N1874       N  0.58899131  0.34316443  0.79585171     0.74800
O1875       O  0.69262382  0.42123113  0.71802098    -0.38700
O1876       O  0.73804955  0.38769495  0.73137645    -0.38600
O1877       O  0.58673560  0.36432766  0.82219832    -0.39300
O1878       O  0.55987411  0.33449527  0.77961818    -0.39400
C1879       C  0.72879871  0.31317720  0.81135728    -0.11700
C1880       C  0.71179925  0.33210319  0.83912571     0.05300
C1881       C  0.73552729  0.34837561  0.86496095    -0.07000
C1882       C  0.77413768  0.34575552  0.86069812    -0.07700
C1883       C  0.79062578  0.32908576  0.83011292    -0.02300
C1884       C  0.76572167  0.31522382  0.80385406     0.04500
N1885       N  0.77574908  0.30406422  0.76802946     0.67000
H1886       H  0.71179908  0.29895548  0.79228063     0.15900
H1887       H  0.79091767  0.35576169  0.88252786     0.15700
N1888       N  0.72184980  0.36406962  0.89744829     0.74800
O1889       O  0.80408376  0.28660161  0.76168407    -0.38700
O1890       O  0.75452655  0.31041657  0.74234633    -0.38600
O1891       O  0.71043997  0.34467792  0.92206376    -0.39300
O1892       O  0.72978857  0.39553163  0.90508375    -0.39400
C1893       C  0.62490811  0.16759440  0.78445576    -0.11700
C1894       C  0.65887203  0.16041854  0.80089965     0.05300
C1895       C  0.68308874  0.14234430  0.77688053    -0.07000
C1896       C  0.68224554  0.14859465  0.73988494    -0.07700
C1897       C  0.65314074  0.16630822  0.72365397    -0.02300
C1898       C  0.62182483  0.17132320  0.74643489     0.04500
N1899       N  0.58773008  0.18302268  0.73226736     0.67000
H1900       H  0.60079587  0.17127497  0.80060214     0.15900
H1901       H  0.70441527  0.13800996  0.72431822     0.15700
N1902       N  0.70309142  0.11248228  0.78809458     0.74800
O1903       O  0.58060389  0.21527261  0.73309594    -0.38700
O1904       O  0.56165447  0.16145355  0.72902802    -0.38600
O1905       O  0.69013189  0.08241927  0.78110804    -0.39300
O1906       O  0.73643167  0.11528296  0.79574915    -0.39400
C1907       C  0.73159580  0.18687403  0.81843629    -0.11700
C1908       C  0.71293327  0.16746839  0.84379695     0.05300
C1909       C  0.73560532  0.14974140  0.86881883    -0.07000
C1910       C  0.77469313  0.15171571  0.86544401    -0.07700
C1911       C  0.79222423  0.16738585  0.83568636    -0.02300
C1912       C  0.76914642  0.18809803  0.81486630     0.04500
N1913       N  0.78258562  0.21798498  0.79748937     0.67000
H1914       H  0.71599070  0.20344961  0.80162392     0.15900
H1915       H  0.79122781  0.14278994  0.88739779     0.15700
N1916       N  0.72053670  0.13284926  0.89933831     0.74800
O1917       O  0.76874136  0.24676662  0.80628791    -0.38700
O1918       O  0.80606658  0.21629302  0.77289306    -0.38600
O1919       O  0.72111111  0.09991904  0.90062176    -0.39300
O1920       O  0.71480380  0.15039327  0.92784701    -0.39400
C1921       C  0.63239187  0.23074102  0.83775416    -0.11700
C1922       C  0.66368329  0.21306367  0.84959113     0.05300
C1923       C  0.68787402  0.23504545  0.87036087    -0.07000
C1924       C  0.68603062  0.27155896  0.86824458    -0.07700
C1925       C  0.66095144  0.28916394  0.84591255    -0.02300
C1926       C  0.63031872  0.26776329  0.83587387     0.04500
N1927       N  0.59525418  0.28173197  0.82825662     0.67000
H1928       H  0.60818770  0.21625591  0.83099688     0.15900
H1929       H  0.70550902  0.28622673  0.88442143     0.15700
N1930       N  0.71312321  0.22167674  0.89592671     0.74800
O1931       O  0.57704114  0.26849299  0.80244027    -0.38700
O1932       O  0.57828492  0.29750031  0.85318867    -0.38600
O1933       O  0.74652952  0.22156845  0.88805868    -0.39300
O1934       O  0.70475637  0.22327127  0.92875783    -0.39400
C1935       C  0.65047428  0.11230567  0.86231566    -0.11700
C1936       C  0.64827765  0.14886500  0.86814551     0.05300
C1937       C  0.62487729  0.16065831  0.89700969    -0.07000
C1938       C  0.60535491  0.13635211  0.91722781    -0.07700
C1939       C  0.60747632  0.10067275  0.90980485    -0.02300
C1940       C  0.63038622  0.08850890  0.88233606     0.04500
N1941       N  0.63404280  0.05188710  0.87480962     0.67000
H1942       H  0.66837828  0.10166359  0.84221504     0.15900
H1943       H  0.58772105  0.14564613  0.93875442     0.15700
N1944       N  0.61966321  0.19651117  0.90726333     0.74800
O1945       O  0.61400907  0.03725957  0.85123456    -0.38700
O1946       O  0.66100444  0.03565735  0.88719862    -0.38600
O1947       O  0.59005003  0.21072771  0.89846237    -0.39300
O1948       O  0.63540447  0.20781150  0.93538636    -0.39400
C1949       C  0.58607889  0.40215108  0.64254751    -0.11700
C1950       C  0.59095869  0.39812384  0.60569197     0.05300
C1951       C  0.61790923  0.37481930  0.59314935    -0.07000
C1952       C  0.63841542  0.35529478  0.61750069    -0.07700
C1953       C  0.63408953  0.35915296  0.65509918    -0.02300
C1954       C  0.60744170  0.38441697  0.66722735     0.04500
N1955       N  0.60118607  0.39417803  0.70397495     0.67000
H1956       H  0.56641272  0.42090997  0.65283484     0.15900
H1957       H  0.65820745  0.33700325  0.60670458     0.15700
N1958       N  0.62483595  0.37048247  0.55569285     0.74800
O1959       O  0.61826740  0.42027543  0.71698787    -0.38700
O1960       O  0.57094864  0.38606201  0.71785773    -0.38600
O1961       O  0.65235305  0.38530484  0.54232396    -0.39300
O1962       O  0.60895082  0.34609883  0.53832878    -0.39400
C1963       C  0.86056762  0.09035050  0.62154937    -0.11700
C1964       C  0.88357333  0.10514590  0.59617843     0.05300
C1965       C  0.88447263  0.14146297  0.59317394    -0.07000
C1966       C  0.86394096  0.16257213  0.61668587    -0.07700
C1967       C  0.83979765  0.14860210  0.64275955    -0.02300
C1968       C  0.83895923  0.11109893  0.64477905     0.04500
N1969       N  0.82202024  0.09322030  0.67372513     0.67000
H1970       H  0.86054862  0.06220370  0.62453422     0.15900
H1971       H  0.86840434  0.19029427  0.61431486     0.15700
N1972       N  0.90666450  0.15749884  0.56655089     0.74800
O1973       O  0.79389773  0.07488840  0.66729850    -0.38700
O1974       O  0.84259305  0.08386427  0.69885227    -0.38600
O1975       O  0.89230159  0.16704250  0.53756543    -0.39300
O1976       O  0.93872925  0.16728680  0.57433710    -0.39400
C1977       C  0.61070076  0.13958196  0.59600317    -0.11700
C1978       C  0.59000351  0.11191955  0.60959061     0.05300
C1979       C  0.58952203  0.10756937  0.64703450    -0.07000
C1980       C  0.61009098  0.12973744  0.66970419    -0.07700
C1981       C  0.63071680  0.15841133  0.65703673    -0.02300
C1982       C  0.63068102  0.16279919  0.61883289     0.04500
N1983       N  0.65250908  0.18898571  0.60201608     0.67000
H1984       H  0.61168849  0.14310044  0.56721116     0.15900
H1985       H  0.61060843  0.12256950  0.69750141     0.15700
N1986       N  0.57007355  0.07924309  0.66277524     0.74800
O1987       O  0.68453284  0.18125067  0.59239024    -0.38700
O1988       O  0.63655028  0.21327251  0.58595433    -0.38600
O1989       O  0.58611230  0.05054324  0.66718019    -0.39300
O1990       O  0.54085221  0.08541895  0.67963566    -0.39400
C1991       C  0.90990123  0.36133322  0.89064020    -0.11700
C1992       C  0.89925221  0.39612414  0.89480476     0.05300
C1993       C  0.86771115  0.40740156  0.87723773    -0.07000
C1994       C  0.84785377  0.38406602  0.85519918    -0.07700
C1995       C  0.85684410  0.34819456  0.85156170    -0.02300
C1996       C  0.88950307  0.33718670  0.86968402     0.04500
N1997       N  0.90424896  0.30262470  0.86627657     0.67000
H1998       H  0.93464121  0.35273047  0.90372167     0.15900
H1999       H  0.82464820  0.39433841  0.84099744     0.15700
N2000       N  0.85614118  0.44295599  0.88042853     0.74800
O2001       O  0.92901092  0.29691989  0.84342210    -0.38700
O2002       O  0.90244606  0.28283101  0.89289267    -0.38600
O2003       O  0.86546944  0.46441134  0.85682440    -0.39300
O2004       O  0.83127318  0.45107098  0.90245968    -0.39400
C2005       C  0.87140590  0.08626333  0.88175163    -0.11700
C2006       C  0.90525408  0.09904669  0.89288708     0.05300
C2007       C  0.91593416  0.13245904  0.88294188    -0.07000
C2008       C  0.89148343  0.15359119  0.86453198    -0.07700
C2009       C  0.85712008  0.14148314  0.85131948    -0.02300
C2010       C  0.84788813  0.10550365  0.85995499     0.04500
N2011       N  0.81549392  0.08660561  0.84888613     0.67000
H2012       H  0.86334414  0.06007606  0.88928739     0.15900
H2013       H  0.90042522  0.17993030  0.86094980     0.15700
N2014       N  0.95154232  0.14560527  0.89165613     0.74800
O2015       O  0.82022843  0.06009812  0.82873005    -0.38700
O2016       O  0.79054833  0.08338775  0.87190583    -0.38600
O2017       O  0.97677734  0.14292460  0.86871677    -0.39300
O2018       O  0.95606530  0.16504990  0.91914788    -0.39400
C2019       C  0.63047736  0.34067157  0.89538035    -0.11700
C2020       C  0.64987367  0.35467849  0.86594923     0.05300
C2021       C  0.64876634  0.39195612  0.86240738    -0.07000
C2022       C  0.62623792  0.41226163  0.88466057    -0.07700
C2023       C  0.60490521  0.39731189  0.91110821    -0.02300
C2024       C  0.60786687  0.36145326  0.91736130     0.04500
N2025       N  0.58673001  0.34538490  0.94476260     0.67000
H2026       H  0.63140395  0.31314654  0.90115060     0.15900
H2027       H  0.62475236  0.44022348  0.88058210     0.15700
N2028       N  0.66768985  0.41013049  0.83493199     0.74800
O2029       O  0.55420375  0.33620557  0.93815637    -0.38700
O2030       O  0.60242140  0.33429921  0.97243531    -0.38600
O2031       O  0.64921167  0.42482330  0.81095267    -0.39300
O2032       O  0.69988362  0.42069694  0.84084430    -0.39400
C2033       C  0.86703954  0.37612665  0.58300989    -0.11700
C2034       C  0.89399607  0.39775205  0.59841542     0.05300
C2035       C  0.90046680  0.39560857  0.63545370    -0.07000
C2036       C  0.87956146  0.37319769  0.65610844    -0.07700
C2037       C  0.84986215  0.35299955  0.64215760    -0.02300
C2038       C  0.84536271  0.35381935  0.60392778     0.04500
N2039       N  0.81905374  0.33289126  0.58500694     0.67000
H2040       H  0.86235344  0.37664588  0.55428206     0.15900
H2041       H  0.88686717  0.37393837  0.68392437     0.15700
N2042       N  0.92659089  0.41779500  0.65351285     0.74800
O2043       O  0.78798148  0.34560101  0.57917733    -0.38700
O2044       O  0.83046856  0.30889852  0.56410146    -0.38600
O2045       O  0.91674929  0.44733744  0.66567961    -0.39300
O2046       O  0.95667182  0.40531102  0.66347758    -0.39400
C2047       C  0.91505910  0.92597906  0.07716145     0.43000
N2048       N  0.95173889  0.96780711  0.06391860     0.01900
C2049       C  0.96274691  0.56277555  0.41058765    -0.06000
H2050       H  0.97191170  0.93041764  0.38579886     0.07400
C2051       C  0.59242612  0.94121910  0.46106103    -0.06300
Co2052     Co  0.92778059  0.00194342  0.49510336     0.74200
N2053       N  0.95988343  0.96215414  0.43305036    -0.25500
Co2054     Co  0.50604268  0.00487783  0.43070872     0.74100
C2055       C  0.58177482  0.92231381  0.42815092     0.43100
N2056       N  0.55883596  0.96156877  0.04768652     0.01500
N2057       N  0.54657741  0.96674845  0.43626870     0.01600
N2058       N  0.91438018  0.56234301  0.44823469    -0.46300
H2059       H  0.88220167  0.93261381  0.02480835     0.07400
N2060       N  0.93180236  0.96291807  0.45520594     0.01900
N2061       N  0.54707313  0.53159589  0.43504967     0.01700
C2062       C  0.58591708  0.57117317  0.42218757     0.43300
N2063       N  0.53056069  0.96153703  0.06962073    -0.24900
C2064       C  0.90202921  0.56568910  0.03680246    -0.05900
N2065       N  0.94420459  0.94478125  0.08884035    -0.46000
N2066       N  0.55648481  0.55351010  0.40960073    -0.46300
C2067       C  0.91032021  0.58233126  0.07148104     0.43000
N2068       N  0.93851725  0.53826210  0.45672663     0.01900
N2069       N  0.52813084  0.54864210  0.06279699    -0.25000
N2070       N  0.92903222  0.96566712  0.03636387    -0.25500
N2071       N  0.55677974  0.54883214  0.04135531     0.01600
H2072       H  0.51285689  0.58020119  0.10884634     0.07400
H2073       H  0.61734414  0.56443056  0.47510622     0.07500
N2074       N  0.96679886  0.53755363  0.43475165    -0.25500
N2075       N  0.56907390  0.96807386  0.46407849    -0.25100
N2076       N  0.95039088  0.54273665  0.05989252     0.01900
C2077       C  0.91919545  0.92094342  0.41787383     0.43300
C2078       C  0.53461110  0.93522599  0.09240193    -0.06400
N2079       N  0.56914404  0.53342717  0.46317017    -0.25100
H2080       H  0.61459024  0.93590534  0.47931433     0.07500
N2081       N  0.90649147  0.93918084  0.44666403    -0.46300
H2082       H  0.51636779  0.92927986  0.11429188     0.07500
C2083       C  0.56665184  0.59156557  0.07906551     0.43200
C2084       C  0.90490256  0.93975224  0.04214258    -0.05900
Co2085     Co  0.99116829  0.50478763  0.06496913     0.73800
N2086       N  0.58268022  0.93666288  0.05450050    -0.46100
C2087       C  0.92811243  0.57944024  0.41985348     0.43400
N2088       N  0.94015743  0.56623681  0.08461594    -0.46000
Co2089     Co  0.56291660  0.50826463  0.00285206     0.73900
C2090       C  0.59455456  0.55807059  0.45758536    -0.06400
C2091       C  0.95450846  0.93624218  0.40858234    -0.05900
N2092       N  0.92813770  0.54155022  0.03195474    -0.25500
N2093       N  0.55389156  0.94036014  0.41368310    -0.46200
H2094       H  0.98056534  0.56726591  0.38799718     0.07400
C2095       C  0.53158970  0.57488408  0.08701725    -0.06300
Cl2096     Cl  0.49631994  0.50539854  0.99482086    -0.49300
C2097       C  0.56911037  0.91850917  0.08213887     0.43200
H2098       H  0.87864345  0.56924722  0.01952040     0.07400
N2099       N  0.58077276  0.57374892  0.05045526    -0.46100
C2100       C  0.67138884  0.66974018  0.33683295    -0.01900
C2101       C  0.66912332  0.82777962  0.33591480    -0.01900
C2102       C  0.66272606  0.83715739  0.17727386    -0.01900
C2103       C  0.65676984  0.68006542  0.17854690    -0.01900
C2104       C  0.83665875  0.66572913  0.32494583    -0.01900
C2105       C  0.82051873  0.67206713  0.16761297    -0.01900
C2106       C  0.82783437  0.82980151  0.16665045    -0.01900
C2107       C  0.83453265  0.82429946  0.32347483    -0.01900
C2108       C  0.86903735  0.82892673  0.22576845    -0.11700
C2109       C  0.83663011  0.83977703  0.20832956     0.05300
C2110       C  0.81866483  0.86634227  0.22982750    -0.07000
C2111       C  0.81882745  0.86302180  0.26777146    -0.07700
C2112       C  0.84321686  0.84002130  0.28494840    -0.02300
C2113       C  0.87384995  0.83213743  0.26337164     0.04500
N2114       N  0.90999884  0.83130968  0.27811629     0.67000
H2115       H  0.89290412  0.82380947  0.21030524     0.15900
H2116       H  0.80027014  0.87881091  0.28374397     0.15700
N2117       N  0.81208366  0.90105720  0.21679146     0.74800
O2118       O  0.93330292  0.81051539  0.26487023    -0.38700
O2119       O  0.92101142  0.85694789  0.29722677    -0.38600
O2120       O  0.79088210  0.92123965  0.23402189    -0.39300
O2121       O  0.83659086  0.91551529  0.19859738    -0.39400
C2122       C  0.85574124  0.73239319  0.18150807    -0.11700
C2123       C  0.83081764  0.71239379  0.16021286     0.05300
C2124       C  0.81448804  0.73159934  0.13158606    -0.07000
C2125       C  0.81556067  0.76859994  0.13228569    -0.07700
C2126       C  0.83628753  0.78868934  0.15774709    -0.02300
C2127       C  0.86323201  0.76813300  0.17482633     0.04500
N2128       N  0.90114844  0.77759269  0.17188992     0.67000
H2129       H  0.87300909  0.72011072  0.20041323     0.15900
H2130       H  0.79724362  0.78136986  0.11423245     0.15700
N2131       N  0.79437551  0.71462042  0.10291749     0.74800
O2132       O  0.92448490  0.76487474  0.19283175    -0.38700
O2133       O  0.91205367  0.79504849  0.14553927    -0.38600
O2134       O  0.76096193  0.72149820  0.09911830    -0.39300
O2135       O  0.81157714  0.70295073  0.07592436    -0.39400
C2136       C  0.87150583  0.65769706  0.26120162    -0.11700
C2137       C  0.84093008  0.65266723  0.28365902     0.05300
C2138       C  0.81311596  0.63392642  0.26478881    -0.07000
C2139       C  0.80403681  0.64555535  0.23022829    -0.07700
C2140       C  0.83082309  0.66081869  0.20770887    -0.02300
C2141       C  0.86703929  0.66018322  0.22296817     0.04500
N2142       N  0.89882611  0.65774687  0.20054281     0.67000
H2143       H  0.89853695  0.65730986  0.27274943     0.15900
H2144       H  0.77887702  0.63557062  0.21867874     0.15700
N2145       N  0.81420586  0.59649103  0.26696780     0.74800
O2146       O  0.92449384  0.67962840  0.20458785    -0.38700
O2147       O  0.90591107  0.62875341  0.18538300    -0.38600
O2148       O  0.78750388  0.57820364  0.25581786    -0.39300
O2149       O  0.84518274  0.58214086  0.26796608    -0.39400
C2150       C  0.83217206  0.72687483  0.35985580    -0.11700
C2151       C  0.84928021  0.70650188  0.33207637     0.05300
C2152       C  0.87120316  0.72736373  0.30870913    -0.07000
C2153       C  0.86381876  0.76318710  0.30472799    -0.07700
C2154       C  0.84249763  0.78334924  0.32881875    -0.02300
C2155       C  0.82972867  0.76428699  0.35921475     0.04500
N2156       N  0.81410480  0.78225951  0.38972842     0.67000
H2157       H  0.81909841  0.71344553  0.38166516     0.15900
H2158       H  0.87767763  0.77455917  0.28321877     0.15700
N2159       N  0.90533183  0.71605042  0.29381159     0.74800
O2160       O  0.78172902  0.77598951  0.39907206    -0.38700
O2161       O  0.83391165  0.80106922  0.41016515    -0.38600
O2162       O  0.91212479  0.72302734  0.26152922    -0.39300
O2163       O  0.93221159  0.71289943  0.31469016    -0.39400
C2164       C  0.75495639  0.64361228  0.14713859    -0.11700
C2165       C  0.77721986  0.67056418  0.16275648     0.05300
C2166       C  0.75742996  0.69888209  0.17664013    -0.07000
C2167       C  0.72184950  0.70442925  0.16668503    -0.07700
C2168       C  0.69796547  0.67587579  0.16442363    -0.02300
C2169       C  0.71583143  0.64420686  0.15194439     0.04500
N2170       N  0.69558419  0.61279684  0.14459197     0.67000
H2171       H  0.76713867  0.62142856  0.13372322     0.15900
H2172       H  0.71356387  0.73075160  0.17051642     0.15700
N2173       N  0.76626970  0.71139503  0.21112470     0.74800
O2174       O  0.68883069  0.60391367  0.11240497    -0.38700
O2175       O  0.69301766  0.59015666  0.16860940    -0.38600
O2176       O  0.78134756  0.74069287  0.21523495    -0.39300
O2177       O  0.74954364  0.69771463  0.23676606    -0.39400
C2178       C  0.67014658  0.77779714  0.20217889    -0.11700
C2179       C  0.65167525  0.79683250  0.17646064     0.05300
C2180       C  0.62586225  0.77694451  0.15515614    -0.07000
C2181       C  0.62555351  0.73940164  0.15651877    -0.07700
C2182       C  0.64721190  0.72091884  0.18150501    -0.02300
C2183       C  0.66387006  0.74297655  0.20811976     0.04500
N2184       N  0.67150062  0.73271450  0.24344425     0.67000
H2185       H  0.68864572  0.79117386  0.22058826     0.15900
H2186       H  0.60719179  0.72510605  0.13880825     0.15700
N2187       N  0.59987206  0.79326151  0.13247600     0.74800
O2188       O  0.70209689  0.74123380  0.25642768    -0.38700
O2189       O  0.64454899  0.73448545  0.26408885    -0.38600
O2190       O  0.59845994  0.78468639  0.09955138    -0.39300
O2191       O  0.57331286  0.80932743  0.14656289    -0.39400
C2192       C  0.72563662  0.86901898  0.15382140    -0.11700
C2193       C  0.70460122  0.83897298  0.16353009     0.05300
C2194       C  0.72400592  0.80811182  0.15649164    -0.07000
C2195       C  0.76017380  0.80810552  0.16808111    -0.07700
C2196       C  0.78437676  0.83603469  0.16093168    -0.02300
C2197       C  0.76511474  0.86694523  0.14966573     0.04500
N2198       N  0.78308389  0.89391961  0.13032850     0.67000
H2199       H  0.71196791  0.89362539  0.14970781     0.15900
H2200       H  0.76985062  0.78364760  0.17658539     0.15700
N2201       N  0.71733585  0.79088669  0.12238253     0.74800
O2202       O  0.77985129  0.89356947  0.09656958    -0.38700
O2203       O  0.79035789  0.92263578  0.14603960    -0.38600
O2204       O  0.73236897  0.80235008  0.09447603    -0.39300
O2205       O  0.69493045  0.76589250  0.11928414    -0.39400
C2206       C  0.68519448  0.85983966  0.27660854    -0.11700
C2207       C  0.65896314  0.84014600  0.29581129     0.05300
C2208       C  0.62541710  0.83603950  0.27632415    -0.07000
C2209       C  0.62654438  0.83566168  0.23796609    -0.07700
C2210       C  0.65755778  0.84769323  0.21849493    -0.02300
C2211       C  0.68404671  0.86464503  0.23975580     0.04500
N2212       N  0.71212849  0.88515240  0.22506654     0.67000
H2213       H  0.70859133  0.87152721  0.28998759     0.15900
H2214       H  0.60256699  0.82732867  0.22293016     0.15700
N2215       N  0.59043495  0.84158155  0.29304741     0.74800
O2216       O  0.70778518  0.91768486  0.22227428    -0.38700
O2217       O  0.74382493  0.87325792  0.22732702    -0.38600
O2218       O  0.58772852  0.86227409  0.31974144    -0.39300
O2219       O  0.56155291  0.83292204  0.27640806    -0.39400
C2220       C  0.72983459  0.81042119  0.31031707    -0.11700
C2221       C  0.71251396  0.82944394  0.33789118     0.05300
C2222       C  0.73605994  0.84557206  0.36395399    -0.07000
C2223       C  0.77472574  0.84345735  0.35962346    -0.07700
C2224       C  0.79154093  0.82744839  0.32879055    -0.02300
C2225       C  0.76681783  0.81319017  0.30256885     0.04500
N2226       N  0.77711483  0.80176396  0.26682411     0.67000
H2227       H  0.71291334  0.79576008  0.29147528     0.15900
H2228       H  0.79131916  0.85334375  0.38163591     0.15700
N2229       N  0.72216754  0.86048301  0.39675942     0.74800
O2230       O  0.80619252  0.78538251  0.26062474    -0.38700
O2231       O  0.75438932  0.80443905  0.24164418    -0.38600
O2232       O  0.70904028  0.84060764  0.42013063    -0.39300
O2233       O  0.73113999  0.89132367  0.40596601    -0.39400
C2234       C  0.62615139  0.66554633  0.27987033    -0.11700
C2235       C  0.66062800  0.65950519  0.29557758     0.05300
C2236       C  0.68475916  0.64210504  0.27109028    -0.07000
C2237       C  0.68292045  0.64836583  0.23424176    -0.07700
C2238       C  0.65327600  0.66570711  0.21846649    -0.02300
C2239       C  0.62172168  0.66922525  0.24182014     0.04500
N2240       N  0.58540847  0.67649073  0.22879582     0.67000
H2241       H  0.60254559  0.66802585  0.29695568     0.15900
H2242       H  0.70491152  0.63787345  0.21837404     0.15700
N2243       N  0.70583671  0.61269471  0.28165836     0.74800
O2244       O  0.55795609  0.66548565  0.24575576    -0.38700
O2245       O  0.58003482  0.69417954  0.20118102    -0.38600
O2246       O  0.69387239  0.58239422  0.27399588    -0.39300
O2247       O  0.73939829  0.61642983  0.28762031    -0.39400
C2248       C  0.73334279  0.68512835  0.31508892    -0.11700
C2249       C  0.71416857  0.66488903  0.33929697     0.05300
C2250       C  0.73633933  0.64627357  0.36393950    -0.07000
C2251       C  0.77554591  0.64876837  0.36179920    -0.07700
C2252       C  0.79385986  0.66546381  0.33302998    -0.02300
C2253       C  0.77104208  0.68636748  0.31216515     0.04500
N2254       N  0.78478913  0.71634341  0.29528284     0.67000
H2255       H  0.71802681  0.70236524  0.29880082     0.15900
H2256       H  0.79138088  0.63944931  0.38402315     0.15700
N2257       N  0.72043332  0.62755004  0.39280717     0.74800
O2258       O  0.77018253  0.74489202  0.30348672    -0.38700
O2259       O  0.80876635  0.71482143  0.27114108    -0.38600
O2260       O  0.71841094  0.59461565  0.39069930    -0.39300
O2261       O  0.71585985  0.64279593  0.42285303    -0.39400
C2262       C  0.63310993  0.72827133  0.33431099    -0.11700
C2263       C  0.66451888  0.71050836  0.34591521     0.05300
C2264       C  0.68847825  0.73234393  0.36718514    -0.07000
C2265       C  0.68594440  0.76896912  0.36627798    -0.07700
C2266       C  0.66101914  0.78698418  0.34406820    -0.02300
C2267       C  0.63081973  0.76543206  0.33296763     0.04500
N2268       N  0.59585780  0.77934815  0.32474164     0.67000
H2269       H  0.60904945  0.71369308  0.32710837     0.15900
H2270       H  0.70529383  0.78338452  0.38282242     0.15700
N2271       N  0.71458408  0.71868172  0.39177114     0.74800
O2272       O  0.57832150  0.76638601  0.29833726    -0.38700
O2273       O  0.57820152  0.79465695  0.34949913    -0.38600
O2274       O  0.74773223  0.71915174  0.38297469    -0.39300
O2275       O  0.70729250  0.71985481  0.42484681    -0.39400
C2276       C  0.64793482  0.60933116  0.35235945    -0.11700
C2277       C  0.64919588  0.64532675  0.36199703     0.05300
C2278       C  0.62883532  0.65570718  0.39348504    -0.07000
C2279       C  0.60892578  0.63077500  0.41255870    -0.07700
C2280       C  0.60749323  0.59590128  0.40137922    -0.02300
C2281       C  0.62710201  0.58505651  0.37101958     0.04500
N2282       N  0.62709368  0.54916425  0.35939653     0.67000
H2283       H  0.66320311  0.59944723  0.32993853     0.15900
H2284       H  0.59396003  0.63897652  0.43639469     0.15700
N2285       N  0.62828544  0.69044351  0.40839820     0.74800
O2286       O  0.60515947  0.53883766  0.33516932    -0.38700
O2287       O  0.65287209  0.52955034  0.36865599    -0.38600
O2288       O  0.60179695  0.70971860  0.40035882    -0.39300
O2289       O  0.64286819  0.69536675  0.43883394    -0.39400
C2290       C  0.59053298  0.90355402  0.14228694    -0.11700
C2291       C  0.59198810  0.89690096  0.10549638     0.05300
C2292       C  0.61783409  0.87297598  0.09204926    -0.07000
C2293       C  0.64044652  0.85493693  0.11571433    -0.07700
C2294       C  0.63835999  0.86026325  0.15327906    -0.02300
C2295       C  0.61398014  0.88719669  0.16604761     0.04500
N2296       N  0.61396563  0.90141124  0.20190545     0.67000
H2297       H  0.57252041  0.92369518  0.15283258     0.15900
H2298       H  0.65919688  0.83580009  0.10456915     0.15700
N2299       N  0.62101126  0.86610069  0.05443742     0.74800
O2300       O  0.63550573  0.92641557  0.20931202    -0.38700
O2301       O  0.58543597  0.89828401  0.22059841    -0.38600
O2302       O  0.64960616  0.87550870  0.03839449    -0.39300
O2303       O  0.59945535  0.84448970  0.03934623    -0.39400
C2304       C  0.86310684  0.58930449  0.11913449    -0.11700
C2305       C  0.88537614  0.60444656  0.09327916     0.05300
C2306       C  0.88493628  0.64071067  0.08978003    -0.07000
C2307       C  0.86452992  0.66150668  0.11369135    -0.07700
C2308       C  0.84116694  0.64719215  0.14023841    -0.02300
C2309       C  0.84092966  0.60971901  0.14223843     0.04500
N2310       N  0.82366399  0.59167359  0.17089020     0.67000
H2311       H  0.86384440  0.56120356  0.12234194     0.15900
H2312       H  0.86826004  0.68928487  0.11102811     0.15700
N2313       N  0.90550936  0.65700756  0.06210758     0.74800
O2314       O  0.79438578  0.57508096  0.16459460    -0.38700
O2315       O  0.84398501  0.58089138  0.19558745    -0.38600
O2316       O  0.89101648  0.66125079  0.03174685    -0.39300
O2317       O  0.93522431  0.67233193  0.06971727    -0.39400
C2318       C  0.60999156  0.64193349  0.09040186    -0.11700
C2319       C  0.58832352  0.61484974  0.10383699     0.05300
C2320       C  0.58865776  0.60940365  0.14103920    -0.07000
C2321       C  0.61041333  0.63030647  0.16375960    -0.07700
C2322       C  0.63163072  0.65876774  0.15143026    -0.02300
C2323       C  0.63145817  0.66380372  0.11331745     0.04500
N2324       N  0.65440349  0.68927109  0.09667075     0.67000
H2325       H  0.61065560  0.64594423  0.06167945     0.15900
H2326       H  0.61103224  0.62248308  0.19134702     0.15700
N2327       N  0.56881200  0.58110023  0.15635939     0.74800
O2328       O  0.68648077  0.68073931  0.08800694    -0.38700
O2329       O  0.63956445  0.71376534  0.07992879    -0.38600
O2330       O  0.58331125  0.55130415  0.15763122    -0.39300
O2331       O  0.54070927  0.58747340  0.17491274    -0.39400
C2332       C  0.90965824  0.86184537  0.39013283    -0.11700
C2333       C  0.89730003  0.89601371  0.39563180     0.05300
C2334       C  0.86542068  0.90651966  0.37806727    -0.07000
C2335       C  0.84712740  0.88320722  0.35464452    -0.07700
C2336       C  0.85731386  0.84767588  0.35045699    -0.02300
C2337       C  0.89027851  0.83745094  0.36845073     0.04500
N2338       N  0.90615543  0.80342967  0.36430844     0.67000
H2339       H  0.93478375  0.85387286  0.40294040     0.15900
H2340       H  0.82368983  0.89298659  0.34041860     0.15700
N2341       N  0.85142945  0.94107196  0.38333389     0.74800
O2342       O  0.93202131  0.79921286  0.34233741    -0.38700
O2343       O  0.90358801  0.78246279  0.38988445    -0.38600
O2344       O  0.85268802  0.96237368  0.35796497    -0.39300
O2345       O  0.83154253  0.94776332  0.41025321    -0.39400
C2346       C  0.87151483  0.58779025  0.38520091    -0.11700
C2347       C  0.90552075  0.60063064  0.39588401     0.05300
C2348       C  0.91746612  0.63255559  0.38268799    -0.07000
C2349       C  0.89379722  0.65262501  0.36214920    -0.07700
C2350       C  0.85910554  0.64054441  0.34988345    -0.02300
C2351       C  0.84933309  0.60536129  0.36068808     0.04500
N2352       N  0.81906978  0.58480215  0.34716442     0.67000
H2353       H  0.86292399  0.56222799  0.39418252     0.15900
H2354       H  0.90372332  0.67798674  0.35578587     0.15700
N2355       N  0.95369066  0.64509335  0.38975027     0.74800
O2356       O  0.82714871  0.55871235  0.32753153    -0.38700
O2357       O  0.79238063  0.58021326  0.36795073    -0.38600
O2358       O  0.97880895  0.63776220  0.36769745    -0.39300
O2359       O  0.95883626  0.66902278  0.41312558    -0.39400
C2360       C  0.62859872  0.84014857  0.39181103    -0.11700
C2361       C  0.65026431  0.85334966  0.36352899     0.05300
C2362       C  0.65089815  0.89072758  0.36013023    -0.07000
C2363       C  0.62854583  0.91204491  0.38173201    -0.07700
C2364       C  0.60535510  0.89810405  0.40729177    -0.02300
C2365       C  0.60590346  0.86192901  0.41290121     0.04500
N2366       N  0.58208408  0.84660766  0.43859836     0.67000
H2367       H  0.62784871  0.81252891  0.39723121     0.15900
H2368       H  0.62887512  0.94009195  0.37794675     0.15700
N2369       N  0.67185476  0.90819533  0.33357628     0.74800
O2370       O  0.54962965  0.83913498  0.42976253    -0.38700
O2371       O  0.59508703  0.83478856  0.46725070    -0.38600
O2372       O  0.65515953  0.92398421  0.30910671    -0.39300
O2373       O  0.70432841  0.91709920  0.34072570    -0.39400
C2374       C  0.87121708  0.87588425  0.08275044    -0.11700
C2375       C  0.89504578  0.90015799  0.09909127     0.05300
C2376       C  0.90014133  0.89874635  0.13636590    -0.07000
C2377       C  0.88014408  0.87503520  0.15642142    -0.07700
C2378       C  0.85284304  0.85249513  0.14142375    -0.02300
C2379       C  0.85136960  0.85150174  0.10295905     0.04500
N2380       N  0.83377773  0.82393900  0.08310231     0.67000
H2381       H  0.86889269  0.87482897  0.05372261     0.15900
H2382       H  0.88625685  0.87633276  0.18457767     0.15700
N2383       N  0.92436706  0.92238164  0.15505323     0.74800
O2384       O  0.80445050  0.83017088  0.06670736    -0.38700
O2385       O  0.85309290  0.79860510  0.07217375    -0.38600
O2386       O  0.91241534  0.95125815  0.16700397    -0.39300
O2387       O  0.95500890  0.91168640  0.16560896    -0.39400
C2388       C  0.91393808  0.92333782  0.57441090     0.43000
N2389       N  0.94956292  0.96598259  0.56213499     0.01900
C2390       C  0.96292469  0.56295696  0.90639562    -0.06000
H2391       H  0.97584205  0.92984449  0.88568825     0.07400
C2392       C  0.59349812  0.93546984  0.96270837    -0.06300
Co2393     Co  0.93266796  0.00155470  0.99496841     0.74200
N2394       N  0.96495744  0.96003683  0.93419907    -0.25500
Co2395     Co  0.50545716  0.99851102  0.93655013     0.74100
C2396       C  0.58328237  0.91894493  0.92811289     0.43100
N2397       N  0.56165548  0.96995247  0.54302531     0.01500
N2398       N  0.54519886  0.96002257  0.94144062     0.01600
N2399       N  0.91547745  0.56408712  0.94506989    -0.46300
H2400       H  0.87947477  0.93149192  0.52342731     0.07400
N2401       N  0.93640776  0.96165335  0.95580276     0.01900
N2402       N  0.54359956  0.54091878  0.93343695     0.01700
C2403       C  0.58018222  0.58289665  0.92160022     0.43300
N2404       N  0.53346271  0.96912770  0.56493217    -0.24900
C2405       C  0.90472721  0.56436752  0.54198976    -0.05900
N2406       N  0.94295674  0.94205020  0.58635284    -0.46000
N2407       N  0.55203923  0.56360367  0.90835881    -0.46300
C2408       C  0.91486957  0.58098296  0.57619807     0.43000
N2409       N  0.93842339  0.53865601  0.95244443     0.01900
N2410       N  0.53254402  0.53925516  0.56566861    -0.25000
N2411       N  0.92614927  0.96464353  0.53511783    -0.25500
N2412       N  0.56104804  0.53848210  0.54400460     0.01600
H2413       H  0.51920455  0.57022159  0.61270668     0.07400
H2414       H  0.61157768  0.57689425  0.97456684     0.07500
N2415       N  0.96630403  0.53707814  0.93002183    -0.25500
N2416       N  0.56842898  0.96062911  0.96859298    -0.25100
N2417       N  0.95273017  0.53999830  0.56395172     0.01900
C2418       C  0.92195951  0.92211877  0.91624879     0.43300
C2419       C  0.53830364  0.94285853  0.58770702    -0.06400
N2420       N  0.56540942  0.54358237  0.96163963    -0.25100
H2421       H  0.61711344  0.93088868  0.97939030     0.07500
N2422       N  0.90972310  0.93994415  0.94554340    -0.46300
H2423       H  0.51992478  0.93638943  0.60927869     0.07500
C2424       C  0.57349702  0.57962511  0.58304049     0.43200
C2425       C  0.90264395  0.93819079  0.54033028    -0.05900
Co2426     Co  0.99279313  0.50197872  0.56841117     0.73800
N2427       N  0.58611943  0.94554072  0.54957204    -0.46100
C2428       C  0.92952718  0.58124166  0.91694093     0.43400
N2429       N  0.94430653  0.56404173  0.58868022    -0.46000
Co2430     Co  0.56476053  0.49801949  0.50455087     0.73900
C2431       C  0.58930436  0.56964314  0.95673758    -0.06400
C2432       C  0.95856035  0.93537787  0.90863335    -0.05900
N2433       N  0.92976370  0.53935471  0.53657387    -0.25500
N2434       N  0.55336328  0.93601585  0.91669391    -0.46200
H2435       H  0.98099351  0.56776860  0.88408437     0.07400
C2436       C  0.53767033  0.56447507  0.59078141    -0.06300
Cl2437     Cl  0.49797988  0.49890193  0.49660031    -0.49300
C2438       C  0.57332462  0.92702492  0.57730526     0.43200
H2439       H  0.88130925  0.56903057  0.52506598     0.07400
N2440       N  0.58639449  0.56201281  0.55364432    -0.46100
C2441       C  0.67302951  0.67578298  0.83645926    -0.01900
C2442       C  0.66892844  0.83292784  0.82485232    -0.01900
C2443       C  0.65973938  0.83106502  0.66526749    -0.01900
C2444       C  0.66207333  0.67519885  0.67753731    -0.01900
C2445       C  0.83749393  0.67143692  0.82744770    -0.01900
C2446       C  0.82589691  0.67245533  0.67038608    -0.01900
C2447       C  0.82500028  0.82858695  0.66300740    -0.01900
C2448       C  0.83569728  0.82870215  0.81870878    -0.01900
C2449       C  0.86802298  0.83379783  0.71998612    -0.11700
C2450       C  0.83304034  0.83977301  0.70444083     0.05300
C2451       C  0.81185527  0.86292447  0.72721852    -0.07000
C2452       C  0.81982599  0.86660881  0.76406368    -0.07700
C2453       C  0.84497345  0.84439858  0.78045018    -0.02300
C2454       C  0.87436969  0.83586923  0.75755992     0.04500
N2455       N  0.91111710  0.83591792  0.77073456     0.67000
H2456       H  0.89140419  0.83165168  0.70284952     0.15900
H2457       H  0.80145062  0.88231490  0.78040825     0.15700
N2458       N  0.78157202  0.88271205  0.71581115     0.74800
O2459       O  0.93399425  0.81467881  0.75755120    -0.38700
O2460       O  0.92261564  0.86212820  0.78871491    -0.38600
O2461       O  0.75046664  0.87051187  0.72278203    -0.39300
O2462       O  0.78521235  0.91556253  0.71603875    -0.39400
C2463       C  0.85554289  0.73487205  0.68593640    -0.11700
C2464       C  0.83576794  0.71236594  0.66211052     0.05300
C2465       C  0.82344939  0.72875197  0.63002283    -0.07000
C2466       C  0.82189169  0.76565976  0.62858898    -0.07700
C2467       C  0.83716768  0.78804203  0.65588585    -0.02300
C2468       C  0.86293738  0.76998423  0.67712046     0.04500
N2469       N  0.90100795  0.77877076  0.67370989     0.67000
H2470       H  0.86911348  0.72517493  0.70912376     0.15900
H2471       H  0.80413075  0.77559102  0.60831815     0.15700
N2472       N  0.81141803  0.70875459  0.59907722     0.74800
O2473       O  0.92397630  0.76773164  0.69601643    -0.38700
O2474       O  0.91239678  0.79361572  0.64585086    -0.38600
O2475       O  0.77788866  0.70235888  0.59460960    -0.39300
O2476       O  0.83212864  0.70697721  0.57203869    -0.39400
C2477       C  0.87384131  0.66096276  0.76522109    -0.11700
C2478       C  0.84261089  0.65680061  0.78695664     0.05300
C2479       C  0.81479956  0.63814480  0.76798431    -0.07000
C2480       C  0.80683269  0.64904447  0.73311043    -0.07700
C2481       C  0.83452201  0.66303215  0.71094355    -0.02300
C2482       C  0.87027252  0.66308549  0.72701926     0.04500
N2483       N  0.90254394  0.66153569  0.70533170     0.67000
H2484       H  0.90059162  0.66064417  0.77732385     0.15900
H2485       H  0.78179384  0.63909831  0.72136626     0.15700
N2486       N  0.81478730  0.60080079  0.77083057     0.74800
O2487       O  0.92357205  0.68768959  0.70382971    -0.38700
O2488       O  0.91454882  0.63197265  0.69554178    -0.38600
O2489       O  0.78824727  0.58301087  0.75845465    -0.39300
O2490       O  0.84523403  0.58574061  0.77387480    -0.39400
C2491       C  0.83337973  0.73372843  0.85953035    -0.11700
C2492       C  0.85030684  0.71217508  0.83273683     0.05300
C2493       C  0.87278580  0.73157815  0.80868048    -0.07000
C2494       C  0.86550859  0.76720027  0.80251849    -0.07700
C2495       C  0.84349174  0.78817722  0.82529181    -0.02300
C2496       C  0.83078286  0.77085640  0.85673604     0.04500
N2497       N  0.81573079  0.79054295  0.88639795     0.67000
H2498       H  0.82062512  0.72139834  0.88220764     0.15900
H2499       H  0.88030553  0.77841907  0.78110390     0.15700
N2500       N  0.90786448  0.71944210  0.79695890     0.74800
O2501       O  0.78239226  0.78764467  0.89412937    -0.38700
O2502       O  0.83671238  0.80616562  0.90843113    -0.38600
O2503       O  0.91947348  0.72771959  0.76637711    -0.39300
O2504       O  0.93078583  0.70974915  0.81994148    -0.39400
C2505       C  0.76205651  0.64022021  0.65133435    -0.11700
C2506       C  0.78294268  0.66979227  0.66327597     0.05300
C2507       C  0.76167023  0.69858713  0.67359644    -0.07000
C2508       C  0.72584970  0.70108825  0.66272290    -0.07700
C2509       C  0.70356807  0.67140732  0.66444779    -0.02300
C2510       C  0.72298224  0.63954780  0.65579510     0.04500
N2511       N  0.70433106  0.60674544  0.65165567     0.67000
H2512       H  0.77520536  0.61725165  0.64081094     0.15900
H2513       H  0.71565772  0.72699407  0.66330703     0.15700
N2514       N  0.76871582  0.71378049  0.70749997     0.74800
O2515       O  0.69590539  0.59582683  0.62048504    -0.38700
O2516       O  0.70606887  0.58502353  0.67660606    -0.38600
O2517       O  0.78252518  0.74374761  0.71013399    -0.39300
O2518       O  0.75276972  0.70060785  0.73390078    -0.39400
C2519       C  0.67266209  0.77387240  0.69220843    -0.11700
C2520       C  0.65266945  0.79012131  0.66529548     0.05300
C2521       C  0.62888834  0.76775540  0.64454390    -0.07000
C2522       C  0.62913167  0.73078730  0.65022608    -0.07700
C2523       C  0.65071225  0.71544478  0.67753694    -0.02300
C2524       C  0.66651745  0.74019231  0.70241031     0.04500
N2525       N  0.67406648  0.73427817  0.73931869     0.67000
H2526       H  0.69068078  0.78955390  0.70928915     0.15900
H2527       H  0.61207966  0.71440789  0.63314192     0.15700
N2528       N  0.60563877  0.78082031  0.61704933     0.74800
O2529       O  0.70506913  0.74341572  0.75084096    -0.38700
O2530       O  0.64778401  0.73952494  0.76044795    -0.38600
O2531       O  0.61868854  0.78614761  0.58631640    -0.39300
O2532       O  0.57160414  0.77645636  0.61984620    -0.39400
C2533       C  0.72379375  0.86594946  0.65070397    -0.11700
C2534       C  0.70249141  0.83483389  0.65442614     0.05300
C2535       C  0.72286491  0.80502447  0.64425733    -0.07000
C2536       C  0.75882259  0.80321701  0.65587548    -0.07700
C2537       C  0.78214296  0.83268729  0.65494390    -0.02300
C2538       C  0.76297762  0.86433436  0.64619901     0.04500
N2539       N  0.78109831  0.89282414  0.62918881     0.67000
H2540       H  0.71050068  0.89084532  0.64820301     0.15900
H2541       H  0.76800245  0.77763431  0.66144730     0.15700
N2542       N  0.71120430  0.78247439  0.61483191     0.74800
O2543       O  0.77646012  0.89683342  0.59594979    -0.38700
O2544       O  0.79568756  0.91724496  0.64751053    -0.38600
O2545       O  0.72941004  0.75564521  0.60647508    -0.39300
O2546       O  0.68975597  0.79422466  0.59159186    -0.39400
C2547       C  0.67685607  0.86505524  0.76335831    -0.11700
C2548       C  0.65730053  0.83985051  0.78404338     0.05300
C2549       C  0.62841954  0.82287521  0.76508881    -0.07000
C2550       C  0.62771226  0.82303356  0.72748537    -0.07700
C2551       C  0.65187148  0.84321852  0.70614896    -0.02300
C2552       C  0.67134459  0.86927284  0.72579758     0.04500
N2553       N  0.67968315  0.90238755  0.70998713     0.67000
H2554       H  0.69532784  0.88302824  0.77714781     0.15900
H2555       H  0.60847060  0.80526630  0.71462384     0.15700
N2556       N  0.59673713  0.80943131  0.78234059     0.74800
O2557       O  0.65960935  0.91337251  0.68510452    -0.38700
O2558       O  0.70060526  0.92400244  0.72602440    -0.38600
O2559       O  0.57671970  0.83046754  0.79980945    -0.39300
O2560       O  0.58287835  0.78093913  0.77091558    -0.39400
C2561       C  0.73035597  0.81828362  0.79891555    -0.11700
C2562       C  0.71224625  0.83838345  0.82507745     0.05300
C2563       C  0.73550071  0.85648619  0.85031225    -0.07000
C2564       C  0.77403127  0.85073689  0.84993995    -0.07700
C2565       C  0.79205372  0.83151555  0.82201657    -0.02300
C2566       C  0.76809602  0.81728033  0.79455033     0.04500
N2567       N  0.77997198  0.80210937  0.76067507     0.67000
H2568       H  0.71402473  0.80284899  0.78020133     0.15900
H2569       H  0.78965666  0.86217486  0.87184183     0.15700
N2570       N  0.72158275  0.88102555  0.87625391     0.74800
O2571       O  0.81006386  0.78682387  0.75711679    -0.38700
O2572       O  0.75877157  0.80253610  0.73393727    -0.38600
O2573       O  0.72914943  0.87755716  0.90907926    -0.39300
O2574       O  0.70956739  0.90995511  0.86583345    -0.39400
C2575       C  0.62993952  0.67208397  0.77827833    -0.11700
C2576       C  0.66325357  0.66422935  0.79549958     0.05300
C2577       C  0.68708004  0.64347383  0.77321200    -0.07000
C2578       C  0.68677219  0.64712542  0.73594440    -0.07700
C2579       C  0.65826056  0.66409959  0.71816180    -0.02300
C2580       C  0.62691296  0.67177038  0.74008822     0.04500
N2581       N  0.59291983  0.68212282  0.72456269     0.67000
H2582       H  0.60641797  0.67970803  0.79376353     0.15900
H2583       H  0.70885892  0.63506033  0.72152482     0.15700
N2584       N  0.70662381  0.61411370  0.78673807     0.74800
O2585       O  0.58537175  0.71420345  0.72303182    -0.38700
O2586       O  0.56711993  0.66013676  0.72261173    -0.38600
O2587       O  0.69465487  0.58377909  0.77922187    -0.39300
O2588       O  0.73967089  0.61733842  0.79544145    -0.39400
C2589       C  0.73493547  0.68936979  0.81389456    -0.11700
C2590       C  0.71554901  0.67086005  0.83958583     0.05300
C2591       C  0.73728028  0.65447880  0.86615872    -0.07000
C2592       C  0.77641314  0.65717384  0.86447381    -0.07700
C2593       C  0.79485565  0.67177208  0.83468615    -0.02300
C2594       C  0.77248062  0.69101334  0.81182635     0.04500
N2595       N  0.78609651  0.72079882  0.79453350     0.67000
H2596       H  0.71995466  0.70554039  0.79602199     0.15900
H2597       H  0.79223990  0.64951659  0.88744046     0.15700
N2598       N  0.72095257  0.63772265  0.89606080     0.74800
O2599       O  0.77306385  0.74972220  0.80419084    -0.38700
O2600       O  0.80976581  0.71899384  0.77009135    -0.38600
O2601       O  0.71191306  0.60589480  0.89306512    -0.39300
O2602       O  0.72404654  0.65157355  0.92700822    -0.39400
C2603       C  0.63347860  0.73414039  0.83599192    -0.11700
C2604       C  0.66657911  0.71692301  0.84378144     0.05300
C2605       C  0.69308395  0.73982759  0.86043952    -0.07000
C2606       C  0.69214161  0.77580981  0.85484763    -0.07700
C2607       C  0.66308274  0.79269939  0.83728673    -0.02300
C2608       C  0.63042919  0.77150981  0.83765774     0.04500
N2609       N  0.59644384  0.78507700  0.85130190     0.67000
H2610       H  0.60878344  0.71875497  0.83449919     0.15900
H2611       H  0.71413222  0.79080793  0.86701702     0.15700
N2612       N  0.71814665  0.72868905  0.88734787     0.74800
O2613       O  0.56681202  0.77027894  0.84216785    -0.38700
O2614       O  0.59661237  0.80319026  0.88000232    -0.38600
O2615       O  0.75154162  0.72796691  0.87962585    -0.39300
O2616       O  0.70997645  0.73474333  0.91976361    -0.39400
C2617       C  0.64248182  0.61736719  0.85021378    -0.11700
C2618       C  0.64986205  0.65227908  0.86186108     0.05300
C2619       C  0.63378914  0.66294772  0.89549106    -0.07000
C2620       C  0.61097753  0.63985426  0.91405757    -0.07700
C2621       C  0.60302229  0.60643507  0.90053523    -0.02300
C2622       C  0.61931971  0.59498062  0.86857159     0.04500
N2623       N  0.61387974  0.56003445  0.85501993     0.67000
H2624       H  0.65394702  0.60673660  0.82602719     0.15900
H2625       H  0.59939487  0.64821012  0.93962076     0.15700
N2626       N  0.64172717  0.69542451  0.91356255     0.74800
O2627       O  0.58781169  0.55344965  0.83367056    -0.38700
O2628       O  0.63868247  0.53766224  0.85890403    -0.38600
O2629       O  0.61980483  0.72036729  0.90959121    -0.39300
O2630       O  0.65870174  0.69405164  0.94302796    -0.39400
C2631       C  0.57764114  0.88323382  0.62527293    -0.11700
C2632       C  0.59378352  0.89916926  0.59594331     0.05300
C2633       C  0.62947285  0.88913075  0.58630585    -0.07000
C2634       C  0.64866082  0.86537587  0.60728241    -0.07700
C2635       C  0.63415360  0.85154944  0.63931306    -0.02300
C2636       C  0.59680217  0.86024925  0.64700557     0.04500
N2637       N  0.57751222  0.84861084  0.67781352     0.67000
H2638       H  0.54987809  0.88961341  0.63270424     0.15900
H2639       H  0.67574751  0.85882771  0.59818760     0.15700
N2640       N  0.64745495  0.90358628  0.55595699     0.74800
O2641       O  0.57161028  0.87048479  0.70304427    -0.38700
O2642       O  0.55624828  0.82266494  0.67436919    -0.38600
O2643       O  0.66994417  0.92841425  0.56068941    -0.39300
O2644       O  0.64701835  0.88692006  0.52631114    -0.39400
C2645       C  0.86774488  0.58902723  0.62313211    -0.11700
C2646       C  0.89175156  0.60381524  0.59864506     0.05300
C2647       C  0.89562021  0.64008362  0.59797445    -0.07000
C2648       C  0.87487145  0.66119994  0.62112047    -0.07700
C2649       C  0.84857666  0.64729502  0.64517742    -0.02300
C2650       C  0.84712982  0.60988949  0.64701914     0.04500
N2651       N  0.83113224  0.59232001  0.67668142     0.67000
H2652       H  0.86662403  0.56080406  0.62527287     0.15900
H2653       H  0.88108143  0.68876018  0.62039203     0.15700
N2654       N  0.92153503  0.65593771  0.57461696     0.74800
O2655       O  0.80437114  0.57198088  0.67100936    -0.38700
O2656       O  0.85198331  0.58571281  0.70257378    -0.38600
O2657       O  0.91094510  0.66853892  0.54538078    -0.39300
O2658       O  0.95361226  0.66204304  0.58559643    -0.39400
C2659       C  0.61807230  0.62952192  0.59165253    -0.11700
C2660       C  0.59534539  0.60409359  0.60670332     0.05300
C2661       C  0.59435264  0.60199447  0.64442106    -0.07000
C2662       C  0.61589470  0.62443838  0.66594577    -0.07700
C2663       C  0.63784459  0.65144253  0.65174381    -0.02300
C2664       C  0.63901445  0.65307495  0.61325803     0.04500
N2665       N  0.66285022  0.67676336  0.59513226     0.67000
H2666       H  0.61975739  0.63111044  0.56266957     0.15900
H2667       H  0.61557961  0.61923128  0.69425741     0.15700
N2668       N  0.57302117  0.57588304  0.66174084     0.74800
O2669       O  0.69439065  0.66648778  0.58652723    -0.38700
O2670       O  0.64896238  0.70111518  0.57743898    -0.38600
O2671       O  0.58742312  0.54693515  0.66877815    -0.39300
O2672       O  0.54392290  0.58471115  0.67755494    -0.39400
C2673       C  0.91112695  0.86441483  0.88641463    -0.11700
C2674       C  0.89954068  0.89860476  0.89274644     0.05300
C2675       C  0.86848774  0.91035701  0.87453517    -0.07000
C2676       C  0.84945567  0.88769636  0.85074312    -0.07700
C2677       C  0.85862994  0.85191366  0.84609898    -0.02300
C2678       C  0.89178324  0.84109424  0.86359975     0.04500
N2679       N  0.90823257  0.80756850  0.85769671     0.67000
H2680       H  0.93597476  0.85562872  0.89917317     0.15900
H2681       H  0.82677584  0.89839452  0.83607919     0.15700
N2682       N  0.85676108  0.94577538  0.87873725     0.74800
O2683       O  0.93411024  0.80494525  0.83549705    -0.38700
O2684       O  0.90631813  0.78543174  0.88226540    -0.38600
O2685       O  0.86516752  0.96776175  0.85532220    -0.39300
O2686       O  0.83306822  0.95351179  0.90212517    -0.39400
C2687       C  0.87486381  0.59000257  0.88022515    -0.11700
C2688       C  0.90714626  0.60373901  0.89422163     0.05300
C2689       C  0.91539890  0.63893575  0.88911358    -0.07000
C2690       C  0.89095575  0.65995951  0.87043414    -0.07700
C2691       C  0.85872579  0.64659077  0.85358158    -0.02300
C2692       C  0.85045750  0.60996278  0.86024366     0.04500
N2693       N  0.81681365  0.59189323  0.85156283     0.67000
H2694       H  0.86793493  0.56297200  0.88555332     0.15900
H2695       H  0.89813513  0.68720689  0.86960898     0.15700
N2696       N  0.94838920  0.65399736  0.90318402     0.74800
O2697       O  0.81909492  0.56495409  0.83157340    -0.38700
O2698       O  0.79352010  0.58982689  0.87637363    -0.38600
O2699       O  0.97617792  0.65581448  0.88328897    -0.39300
O2700       O  0.94774432  0.67112928  0.93254031    -0.39400
C2701       C  0.65118183  0.85255842  0.88865755    -0.11700
C2702       C  0.64844520  0.85843709  0.85134141     0.05300
C2703       C  0.62539346  0.88683261  0.84109436    -0.07000
C2704       C  0.60426063  0.90461221  0.86671923    -0.07700
C2705       C  0.60630623  0.89753853  0.90322932    -0.02300
C2706       C  0.63086732  0.87176856  0.91429708     0.04500
N2707       N  0.63431370  0.86327145  0.95119277     0.67000
H2708       H  0.66872071  0.83206308  0.89819758     0.15900
H2709       H  0.58711734  0.92573731  0.85775367     0.15700
N2710       N  0.62532013  0.90150675  0.80614298     0.74800
O2711       O  0.61119832  0.84286133  0.96473899    -0.38700
O2712       O  0.66468794  0.86803643  0.96662241    -0.38600
O2713       O  0.59688640  0.89857820  0.78707550    -0.39300
O2714       O  0.64688575  0.92663730  0.80038074    -0.39400
C2715       C  0.87262728  0.87211880  0.57994915    -0.11700
C2716       C  0.89295313  0.89883776  0.59653344     0.05300
C2717       C  0.89129208  0.90300090  0.63395142    -0.07000
C2718       C  0.86843740  0.88156886  0.65375760    -0.07700
C2719       C  0.84834061  0.85300492  0.63819114    -0.02300
C2720       C  0.85098432  0.84913024  0.59985710     0.04500
N2721       N  0.83197009  0.82275725  0.57962026     0.67000
H2722       H  0.87361203  0.86883869  0.55095616     0.15900
H2723       H  0.86659830  0.88893957  0.68177498     0.15700
N2724       N  0.91166620  0.92984463  0.65252756     0.74800
O2725       O  0.79952453  0.82832309  0.56994736    -0.38700
O2726       O  0.85033529  0.79999770  0.56255847    -0.38600
O2727       O  0.89617621  0.95801884  0.66176357    -0.39300
O2728       O  0.94259356  0.92283654  0.66542376    -0.39400
loop_ 
_geom_bond_atom_site_label_1 
_geom_bond_atom_site_label_2 
_geom_bond_distance 
_geom_bond_site_symmetry_2 
_ccdc_geom_bond_type 
C1           N19   1.349       .  A
C1           C38   1.468       .  S
C1          C329   1.487       .  S
N2           N19   1.321       .  A
N2           N24   1.320       .  A
N2         Co721   2.082       .  S
C3           N28   1.346       .  A
C3           C41   1.466       .  S
C3           H48   1.081       .  S
H4           C45   1.082       .  S
C5           N29   1.343       .  A
C5            C9   1.462       .  S
C5           H34   1.082       .  S
Co6          N14   2.089       .  S
Co6         N365   2.092       .  S
Co6        N1069   2.083       .  S
Co6         N704   2.090       .  S
Co6       Cl2437   2.458       .  S
N7           C45   1.343       .  A
N7           N14   1.320       .  A
N7        Co1372   2.092       .  S
Co8          N11   2.082       .  S
Co8        N1371   2.092   1_455  S
Co8        N2074   2.090   1_455  S
Co8         N697   2.085       .  S
Co8       Cl1073   2.434   1_455  S
C9           N47   1.350       .  A
C9          C318   1.473       .  S
N10          N17   1.318       .  A
N10          N40   1.324       .  A
N10        Co725   2.065       .  S
N11          N29   1.320       .  A
N11          N47   1.320       .  A
N12          C41   1.350       .  A
N12          N22   1.323       .  A
H13          C38   1.081       .  S
N14          N35   1.327       .  A
N15          N33   1.320       .  A
N15          N20   1.320       .  A
N15        Co690   2.069       .  S
C16          N20   1.344       .  A
C16          C44   1.458       .  S
C16         C234   1.465       .  S
N17          C32   1.340       .  A
N17       Co2085   2.096   1_455  S
C18          N46   1.339       .  A
C18          C21   1.452       .  S
C18          H52   1.081       .  S
C21          N42   1.352       .  A
C21         C259   1.468       .  S
N22          N28   1.320       .  A
N22        Co688   2.087       .  S
N23          C49   1.341       .  A
N23          N25   1.321       .  A
N23       Co1403   2.094   1_455  S
N24          C38   1.344       .  A
N24        Co347   2.090   1_554  S
N25          N53   1.333       .  A
N25         Co43   2.117       .  S
H26          C49   1.081       .  S
H27          C44   1.082       .  S
N28       Co2054   2.103       .  S
N29       Co1066   2.085       .  S
N30          N42   1.326       .  A
N30          N46   1.320       .  A
N30         Co39   2.094   1_545  S
C31          N35   1.351       .  A
C31          C45   1.460       .  S
C31         C287   1.480       .  S
C32          C51   1.467       .  S
C32          H36   1.082       .  S
N33          C44   1.338       .  A
N33        Co384   2.071       .  S
C37          N53   1.358       .  A
C37          C49   1.464       .  S
C37         C273   1.500       .  S
Co39        N684   2.097       .  S
Co39       N2063   2.095       .  S
Co39       N1387   2.098   1_565  S
Co39      Cl1414   2.447       .  S
N40          C51   1.346       .  A
C41         C301   1.477       .  S
Co43        N692   2.070   1_545  S
Co43       N1052   2.101   1_544  S
Co43        N374   2.069   1_554  S
Co43        Cl50   2.470   1_455  S
N46       Co1029   2.076   1_544  S
Cl50      Co2393   2.465   1_554  S
Cl50      Co1031   2.442   1_644  S
Cl50      Co1403   2.442       .  S
C51         C245   1.474       .  S
C54         C189   1.617       .  S
C54         C203   1.576       .  S
C54         C217   1.597       .  S
C54         C231   1.560       .  S
C55         C161   1.596       .  S
C55         C175   1.593       .  S
C55         C220   1.614       .  S
C55         C315   1.559       .  S
C56         C133   1.593       .  S
C56         C147   1.614       .  S
C56         C164   1.590       .  S
C56         C248   1.566       .  S
C57         C122   1.608       .  S
C57         C136   1.598       .  S
C57         C192   1.585       .  S
C57         C276   1.580       .  S
C58          C91   1.612       .  S
C58         C105   1.622       .  S
C58         C206   1.596       .  S
C58         C304   1.585       .  S
C59          C77   1.608       .  S
C59          C94   1.604       .  S
C59         C119   1.593       .  S
C59         C262   1.579       .  S
C60          C63   1.625       .  S
C60          C80   1.640       .  S
C60         C150   1.645       .  S
C60         C332   1.571       .  S
C61          C66   1.590       .  S
C61         C108   1.600       .  S
C61         C178   1.582       .  S
C61         C290   1.568       .  S
C62          H69   1.059       .  S
C62          C63   1.421       .  A
C62          C67   1.408       .  A
C63          C64   1.433       .  A
C64          C65   1.420       .  A
C64          N71   1.437       .  S
C65          H70   1.081       .  S
C65          C66   1.420       .  A
C66          C67   1.410       .  A
C67          N68   1.431       .  S
N68          O72   1.263       .  A
N68          O73   1.262       .  A
N71          O75   1.262       .  A
N71          O74   1.261       .  A
C76          H83   1.069       .  S
C76          C77   1.412       .  A
C76          C81   1.419       .  A
C77          C78   1.437       .  A
C78          C79   1.419       .  A
C78          N85   1.433       .  S
C79          H84   1.069       .  S
C79          C80   1.416       .  A
C80          C81   1.435       .  A
C81          N82   1.438       .  S
N82          O86   1.263       .  A
N82          O87   1.262       .  A
N85          O89   1.262       .  A
N85          O88   1.262       .  A
C90          H97   1.079       .  S
C90          C91   1.418       .  A
C90          C95   1.437       .  A
C91          C92   1.415       .  A
C92          C93   1.401       .  A
C92          N99   1.432       .  S
C93          H98   1.075       .  S
C93          C94   1.419       .  A
C94          C95   1.433       .  A
C95          N96   1.434       .  S
N96         O100   1.261       .  A
N96         O101   1.261       .  A
N99         O103   1.260       .  A
N99         O102   1.262       .  A
C104        H111   1.081       .  S
C104        C105   1.424       .  A
C104        C109   1.426       .  A
C105        C106   1.427       .  A
C106        C107   1.406       .  A
C106        N113   1.434       .  S
C107        H112   1.060       .  S
C107        C108   1.411       .  A
C108        C109   1.435       .  A
C109        N110   1.436       .  S
N110        O114   1.259       .  A
N110        O115   1.260       .  A
N113        O117   1.261       .  A
N113        O116   1.262       .  A
C118        H125   1.072       .  S
C118        C119   1.426       .  A
C118        C123   1.438       .  A
C119        C120   1.424       .  A
C120        C121   1.387       .  A
C120        N127   1.440       .  S
C121        H126   1.054       .  S
C121        C122   1.397       .  A
C122        C123   1.437       .  A
C123        N124   1.430       .  S
N124        O128   1.262       .  A
N124        O129   1.262       .  A
N127        O131   1.255       .  A
N127        O130   1.257       .  A
C132        H139   1.079       .  S
C132        C133   1.396       .  A
C132        C137   1.373       .  A
C133        C134   1.435       .  A
C134        C135   1.437       .  A
C134        N141   1.426       .  S
C135        H140   1.079       .  S
C135        C136   1.422       .  A
C136        C137   1.425       .  A
C137        N138   1.419       .  S
N138        O142   1.254       .  A
N138        O143   1.260       .  A
N141        O145   1.262       .  A
N141        O144   1.262       .  A
C146        H153   1.080       .  S
C146        C147   1.407       .  A
C146        C151   1.448       .  A
C147        C148   1.410       .  A
C148        C149   1.397       .  A
C148        N155   1.435       .  S
C149        H154   1.055       .  S
C149        C150   1.421       .  A
C150        C151   1.472       .  A
C151        N152   1.452       .  S
N152        O156   1.264       .  A
N152        O157   1.255       .  A
N155        O159   1.259       .  A
N155        O158   1.263       .  A
C160        H167   1.083       .  S
C160        C161   1.422       .  A
C160        C165   1.392       .  A
C161        C162   1.419       .  A
C162        C163   1.409       .  A
C162        N169   1.420       .  S
C163        H168   1.084       .  S
C163        C164   1.425       .  A
C164        C165   1.412       .  A
C165        N166   1.419       .  S
N166        O170   1.261       .  A
N166        O171   1.256       .  A
N169        O173   1.262       .  A
N169        O172   1.262       .  A
C174        H181   1.081       .  S
C174        C175   1.407       .  A
C174        C179   1.385       .  A
C175        C176   1.424       .  A
C176        C177   1.420       .  A
C176        N183   1.427       .  S
C177        H182   1.078       .  S
C177        C178   1.425       .  A
C178        C179   1.425       .  A
C179        N180   1.433       .  S
N180        O184   1.257       .  A
N180        O185   1.261       .  A
N183        O187   1.262       .  A
N183        O186   1.262       .  A
C188        H195   1.073       .  S
C188        C189   1.414       .  A
C188        C193   1.419       .  A
C189        C190   1.428       .  A
C190        C191   1.407       .  A
C190        N197   1.431       .  S
C191        H196   1.076       .  S
C191        C192   1.409       .  A
C192        C193   1.436       .  A
C193        N194   1.432       .  S
N194        O198   1.261       .  A
N194        O199   1.262       .  A
N197        O201   1.257       .  A
N197        O200   1.262       .  A
C202        H209   1.077       .  S
C202        C203   1.387       .  A
C202        C207   1.369       .  A
C203        C204   1.432       .  A
C204        C205   1.445       .  A
C204        N211   1.428       .  S
C205        H210   1.080       .  S
C205        C206   1.432       .  A
C206        C207   1.404       .  A
C207        N208   1.396       .  S
N208        O212   1.254       .  A
N208        O213   1.259       .  A
N211        O215   1.262       .  A
N211        O214   1.262       .  A
C216        H223   1.078       .  S
C216        C217   1.415       .  A
C216        C221   1.431       .  A
C217        C218   1.437       .  A
C218        C219   1.385       .  A
C218        N225   1.438       .  S
C219        H224   1.080       .  S
C219        C220   1.413       .  A
C220        C221   1.437       .  A
C221        N222   1.439       .  S
N222        O226   1.263       .  A
N222        O227   1.260       .  A
N225        O229   1.262       .  A
N225        O228   1.258       .  A
C230        H237   1.076       .  S
C230        C231   1.422       .  A
C230        C235   1.393       .  A
C231        C232   1.431       .  A
C232        C233   1.398       .  A
C232        N239   1.422       .  S
C233        H238   1.085       .  S
C233        C234   1.388       .  A
C234        C235   1.400       .  A
C235        N236   1.430       .  S
N236        O240   1.262       .  A
N236        O241   1.262       .  A
N239        O243   1.263       .  A
N239        O242   1.263       .  A
C244        H251   1.085       .  S
C244        C245   1.384       .  A
C244        C249   1.393       .  A
C245        C246   1.403       .  A
C246        C247   1.404       .  A
C246        N253   1.426       .  S
C247        H252   1.073       .  S
C247        C248   1.412       .  A
C248        C249   1.446       .  A
C249        N250   1.429       .  S
N250        O254   1.261       .  A
N250        O255   1.262       .  A
N253        O257   1.261       .  A
N253        O256   1.262       .  A
C258        H265   1.085       .  S
C258        C259   1.391       .  A
C258        C263   1.406       .  A
C259        C260   1.392       .  A
C260        C261   1.395       .  A
C260        N267   1.430       .  S
C261        H266   1.076       .  S
C261        C262   1.428       .  A
C262        C263   1.440       .  A
C263        N264   1.429       .  S
N264        O268   1.262       .  A
N264        O269   1.260       .  A
N267        O271   1.262       .  A
N267        O270   1.262       .  A
C272        H279   1.084       .  S
C272        C273   1.405       .  A
C272        C277   1.420       .  A
C273        C274   1.406       .  A
C274        C275   1.398       .  A
C274        N281   1.430       .  S
C275        H280   1.077       .  S
C275        C276   1.420       .  A
C276        C277   1.435       .  A
C277        N278   1.433       .  S
N278        O282   1.261       .  A
N278        O283   1.262       .  A
N281        O285   1.262       .  A
N281        O284   1.262       .  A
C286        H293   1.084       .  S
C286        C287   1.396       .  A
C286        C291   1.408       .  A
C287        C288   1.402       .  A
C288        C289   1.400       .  A
C288        N295   1.429       .  S
C289        H294   1.081       .  S
C289        C290   1.417       .  A
C290        C291   1.441       .  A
C291        N292   1.434       .  S
N292        O296   1.261       .  A
N292        O297   1.262       .  A
N295        O299   1.262       .  A
N295        O298   1.262       .  A
C300        H307   1.085       .  S
C300        C301   1.386       .  A
C300        C305   1.406       .  A
C301        C302   1.395       .  A
C302        C303   1.404       .  A
C302        N309   1.428       .  S
C303        H308   1.076       .  S
C303        C304   1.427       .  A
C304        C305   1.453       .  A
C305        N306   1.440       .  S
N306        O310   1.264       .  A
N306        O311   1.258       .  A
N309        O313   1.261       .  A
N309        O312   1.262       .  A
C314        H321   1.079       .  S
C314        C315   1.416       .  A
C314        C319   1.402       .  A
C315        C316   1.436       .  A
C316        C317   1.391       .  A
C316        N323   1.428       .  S
C317        H322   1.085       .  S
C317        C318   1.390       .  A
C318        C319   1.403       .  A
C319        N320   1.426       .  S
N320        O324   1.262       .  A
N320        O325   1.262       .  A
N323        O327   1.263       .  A
N323        O326   1.262       .  A
C328        H335   1.083       .  S
C328        C329   1.398       .  A
C328        C333   1.409       .  A
C329        C330   1.404       .  A
C330        C331   1.392       .  A
C330        N337   1.430       .  S
C331        H336   1.067       .  S
C331        C332   1.418       .  A
C332        C333   1.439       .  A
C333        N334   1.431       .  S
N334        O338   1.261       .  A
N334        O339   1.263       .  A
N337        O341   1.262       .  A
N337        O340   1.262       .  A
C342        N360   1.347       .  A
C342        C379   1.467       .  S
C342        C670   1.484       .  S
N343        N360   1.319       .  A
N343        N365   1.320       .  A
N343      Co1062   2.076       .  S
C344        N369   1.341       .  A
C344        C382   1.458       .  S
C344        H389   1.081       .  S
H345        C386   1.082       .  S
C346        N370   1.344       .  A
C346        C350   1.459       .  S
C346        H375   1.081       .  S
Co347       N355   2.085       .  S
Co347       N728   2.080   1_556  S
Co347      N1045   2.089       .  S
Co347     Cl2096   2.462       .  S
N348        C386   1.343       .  A
N348        N355   1.319       .  A
N348      Co1713   2.087       .  S
Co349      N1712   2.094   1_455  S
Co349       N352   2.108       .  S
Co349      N2415   2.099   1_455  S
Co349      N1038   2.079       .  S
Co349      Cl732   2.451   1_455  S
C350        N388   1.357       .  A
C350        C659   1.484       .  S
N351        N358   1.317       .  A
N351        N381   1.326       .  A
N351      Co1066   2.073       .  S
N352        N370   1.321       .  A
N352        N388   1.329       .  A
N353        C382   1.353       .  A
N353        N363   1.326       .  A
H354        C379   1.081       .  S
N355        N376   1.325       .  A
N356        N374   1.321       .  A
N356        N361   1.325       .  A
N356      Co1031   2.088   1_545  S
C357        N361   1.348       .  A
C357        C385   1.453       .  S
C357        C575   1.464       .  S
N358        C373   1.336       .  A
N358      Co2426   2.081   1_455  S
C359        N387   1.341       .  A
C359        C362   1.455       .  S
C359        H393   1.081       .  S
C362        N383   1.354       .  A
C362        C600   1.478       .  S
N363        N369   1.320       .  A
N363      Co1029   2.099   1_545  S
N364        C390   1.339       .  A
N364        N366   1.320       .  A
N364      Co1744   2.087   1_455  S
N365        C379   1.345       .  A
N366        N394   1.331       .  A
N366       Co384   2.109       .  S
H367        C390   1.081       .  S
H368        C385   1.082       .  S
N369      Co2395   2.084   1_545  S
N370       Co725   2.098   1_556  S
N371        N383   1.328       .  A
N371        N387   1.319       .  A
N371       Co380   2.101       .  S
C372        N376   1.349       .  A
C372        C386   1.459       .  S
C372        C628   1.475       .  S
C373        C392   1.462       .  S
C373        H377   1.081       .  S
N374        C385   1.338       .  A
C378        N394   1.357       .  A
C378        C390   1.462       .  S
C378        C614   1.494       .  S
Co380      N1025   2.077   1_545  S
Co380      N2404   2.097   1_545  S
Co380      N1728   2.084       .  S
Co380     Cl1755   2.447       .  S
N381        C392   1.350       .  A
C382        C642   1.474       .  S
Co384      N1033   2.070   1_545  S
Co384       N711   2.081   1_545  S
Co384      Cl391   2.458   1_455  S
N387       Co688   2.083       .  S
Cl391     Co2052   2.458       .  S
Cl391      Co690   2.444   1_655  S
Cl391     Co1744   2.441       .  S
C392        C586   1.477       .  S
C395        C530   1.623       .  S
C395        C544   1.579       .  S
C395        C558   1.607       .  S
C395        C572   1.563       .  S
C396        C502   1.615       .  S
C396        C516   1.588       .  S
C396        C561   1.621       .  S
C396        C656   1.567       .  S
C397        C474   1.580       .  S
C397        C488   1.610       .  S
C397        C505   1.590       .  S
C397        C589   1.555       .  S
C398        C463   1.605       .  S
C398        C477   1.597       .  S
C398        C533   1.588       .  S
C398        C617   1.576       .  S
C399        C432   1.626       .  S
C399        C446   1.631       .  S
C399        C547   1.594       .  S
C399        C645   1.588       .  S
C400        C418   1.611       .  S
C400        C435   1.611       .  S
C400        C460   1.600       .  S
C400        C603   1.578       .  S
C401        C404   1.619       .  S
C401        C421   1.633       .  S
C401        C491   1.625       .  S
C401        C673   1.573       .  S
C402        C407   1.595       .  S
C402        C449   1.610       .  S
C402        C519   1.593       .  S
C402        C631   1.562       .  S
C403        H410   1.062       .  S
C403        C404   1.421       .  A
C403        C408   1.409       .  A
C404        C405   1.440       .  A
C405        C406   1.419       .  A
C405        N412   1.445       .  S
C406        H411   1.081       .  S
C406        C407   1.420       .  A
C407        C408   1.409       .  A
C408        N409   1.433       .  S
N409        O413   1.263       .  A
N409        O414   1.262       .  A
N412        O416   1.258       .  A
N412        O415   1.264       .  A
C417        H424   1.068       .  S
C417        C418   1.416       .  A
C417        C422   1.421       .  A
C418        C419   1.439       .  A
C419        C420   1.417       .  A
C419        N426   1.435       .  S
C420        H425   1.073       .  S
C420        C421   1.421       .  A
C421        C422   1.425       .  A
C422        N423   1.440       .  S
N423        O427   1.263       .  A
N423        O428   1.263       .  A
N426        O430   1.261       .  A
N426        O429   1.262       .  A
C431        H438   1.078       .  S
C431        C432   1.415       .  A
C431        C436   1.439       .  A
C432        C433   1.425       .  A
C433        C434   1.408       .  A
C433        N440   1.436       .  S
C434        H439   1.078       .  S
C434        C435   1.420       .  A
C435        C436   1.443       .  A
C436        N437   1.435       .  S
N437        O441   1.261       .  A
N437        O442   1.261       .  A
N440        O444   1.261       .  A
N440        O443   1.263       .  A
C445        H452   1.080       .  S
C445        C446   1.427       .  A
C445        C450   1.433       .  A
C446        C447   1.426       .  A
C447        C448   1.411       .  A
C447        N454   1.434       .  S
C448        H453   1.037       .  S
C448        C449   1.415       .  A
C449        C450   1.438       .  A
C450        N451   1.438       .  S
N451        O455   1.259       .  A
N451        O456   1.261       .  A
N454        O458   1.262       .  A
N454        O457   1.262       .  A
C459        H466   1.071       .  S
C459        C460   1.423       .  A
C459        C464   1.442       .  A
C460        C461   1.405       .  A
C461        C462   1.377       .  A
C461        N468   1.401       .  S
C462        H467   1.061       .  S
C462        C463   1.399       .  A
C463        C464   1.444       .  A
C464        N465   1.429       .  S
N465        O469   1.262       .  A
N465        O470   1.262       .  A
N468        O472   1.257       .  A
N468        O471   1.253       .  A
C473        H480   1.082       .  S
C473        C474   1.390       .  A
C473        C478   1.370       .  A
C474        C475   1.432       .  A
C475        C476   1.435       .  A
C475        N482   1.427       .  S
C476        H481   1.079       .  S
C476        C477   1.423       .  A
C477        C478   1.427       .  A
C478        N479   1.414       .  S
N479        O483   1.258       .  A
N479        O484   1.252       .  A
N482        O486   1.262       .  A
N482        O485   1.262       .  A
C487        H494   1.081       .  S
C487        C488   1.415       .  A
C487        C492   1.444       .  A
C488        C489   1.404       .  A
C489        C490   1.389       .  A
C489        N496   1.438       .  S
C490        H495   1.059       .  S
C490        C491   1.417       .  A
C491        C492   1.460       .  A
C492        N493   1.435       .  S
N493        O497   1.263       .  A
N493        O498   1.259       .  A
N496        O500   1.258       .  A
N496        O499   1.262       .  A
C501        H508   1.079       .  S
C501        C502   1.420       .  A
C501        C506   1.391       .  A
C502        C503   1.427       .  A
C503        C504   1.422       .  A
C503        N510   1.439       .  S
C504        H509   1.083       .  S
C504        C505   1.428       .  A
C505        C506   1.406       .  A
C506        N507   1.418       .  S
N507        O511   1.261       .  A
N507        O512   1.256       .  A
N510        O514   1.263       .  A
N510        O513   1.260       .  A
C515        H522   1.078       .  S
C515        C516   1.400       .  A
C515        C520   1.385       .  A
C516        C517   1.423       .  A
C517        C518   1.427       .  A
C517        N524   1.431       .  S
C518        H523   1.080       .  S
C518        C519   1.431       .  A
C519        C520   1.427       .  A
C520        N521   1.440       .  S
N521        O525   1.256       .  A
N521        O526   1.261       .  A
N524        O528   1.262       .  A
N524        O527   1.262       .  A
C529        H536   1.076       .  S
C529        C530   1.414       .  A
C529        C534   1.426       .  A
C530        C531   1.433       .  A
C531        C532   1.402       .  A
C531        N538   1.432       .  S
C532        H537   1.075       .  S
C532        C533   1.406       .  A
C533        C534   1.440       .  A
C534        N535   1.433       .  S
N535        O539   1.262       .  A
N535        O540   1.262       .  A
N538        O542   1.256       .  A
N538        O541   1.262       .  A
C543        H550   1.069       .  S
C543        C544   1.392       .  A
C543        C548   1.379       .  A
C544        C545   1.429       .  A
C545        C546   1.439       .  A
C545        N552   1.427       .  S
C546        H551   1.080       .  S
C546        C547   1.431       .  A
C547        C548   1.407       .  A
C548        N549   1.411       .  S
N549        O553   1.252       .  A
N549        O554   1.258       .  A
N552        O556   1.261       .  A
N552        O555   1.262       .  A
C557        H564   1.070       .  S
C557        C558   1.411       .  A
C557        C562   1.426       .  A
C558        C559   1.432       .  A
C559        C560   1.403       .  A
C559        N566   1.432       .  S
C560        H565   1.078       .  S
C560        C561   1.422       .  A
C561        C562   1.431       .  A
C562        N563   1.425       .  S
N563        O567   1.263       .  A
N563        O568   1.262       .  A
N566        O570   1.260       .  A
N566        O569   1.258       .  A
C571        H578   1.070       .  S
C571        C572   1.415       .  A
C571        C576   1.397       .  A
C572        C573   1.441       .  A
C573        C574   1.401       .  A
C573        N580   1.428       .  S
C574        H579   1.085       .  S
C574        C575   1.387       .  A
C575        C576   1.397       .  A
C576        N577   1.429       .  S
N577        O581   1.262       .  A
N577        O582   1.262       .  A
N580        O584   1.261       .  A
N580        O583   1.262       .  A
C585        H592   1.084       .  S
C585        C586   1.391       .  A
C585        C590   1.393       .  A
C586        C587   1.403       .  A
C587        C588   1.400       .  A
C587        N594   1.424       .  S
C588        H593   1.080       .  S
C588        C589   1.413       .  A
C589        C590   1.438       .  A
C590        N591   1.429       .  S
N591        O595   1.261       .  A
N591        O596   1.262       .  A
N594        O598   1.261       .  A
N594        O597   1.262       .  A
C599        H606   1.085       .  S
C599        C600   1.392       .  A
C599        C604   1.407       .  A
C600        C601   1.397       .  A
C601        C602   1.402       .  A
C601        N608   1.429       .  S
C602        H607   1.078       .  S
C602        C603   1.427       .  A
C603        C604   1.437       .  A
C604        N605   1.427       .  S
N605        O609   1.262       .  A
N605        O610   1.258       .  A
N608        O612   1.262       .  A
N608        O611   1.262       .  A
C613        H620   1.084       .  S
C613        C614   1.402       .  A
C613        C618   1.415       .  A
C614        C615   1.406       .  A
C615        C616   1.398       .  A
C615        N622   1.430       .  S
C616        H621   1.077       .  S
C616        C617   1.419       .  A
C617        C618   1.435       .  A
C618        N619   1.433       .  S
N619        O623   1.262       .  A
N619        O624   1.262       .  A
N622        O626   1.262       .  A
N622        O625   1.262       .  A
C627        H634   1.084       .  S
C627        C628   1.397       .  A
C627        C632   1.407       .  A
C628        C629   1.401       .  A
C629        C630   1.395       .  A
C629        N636   1.430       .  S
C630        H635   1.080       .  S
C630        C631   1.416       .  A
C631        C632   1.439       .  A
C632        N633   1.435       .  S
N633        O637   1.261       .  A
N633        O638   1.261       .  A
N636        O640   1.262       .  A
N636        O639   1.262       .  A
C641        H648   1.085       .  S
C641        C642   1.386       .  A
C641        C646   1.407       .  A
C642        C643   1.394       .  A
C643        C644   1.401       .  A
C643        N650   1.429       .  S
C644        H649   1.075       .  S
C644        C645   1.428       .  A
C645        C646   1.451       .  A
C646        N647   1.435       .  S
N647        O651   1.264       .  A
N647        O652   1.259       .  A
N650        O654   1.261       .  A
N650        O653   1.262       .  A
C655        H662   1.080       .  S
C655        C656   1.415       .  A
C655        C660   1.407       .  A
C656        C657   1.437       .  A
C657        C658   1.405       .  A
C657        N664   1.429       .  S
C658        H663   1.084       .  S
C658        C659   1.393       .  A
C659        C660   1.407       .  A
C660        N661   1.428       .  S
N661        O665   1.262       .  A
N661        O666   1.262       .  A
N664        O668   1.261       .  A
N664        O667   1.263       .  A
C669        H676   1.083       .  S
C669        C670   1.399       .  A
C669        C674   1.410       .  A
C670        C671   1.403       .  A
C671        C672   1.388       .  A
C671        N678   1.431       .  S
C672        H677   1.071       .  S
C672        C673   1.419       .  A
C673        C674   1.434       .  A
C674        N675   1.427       .  S
N675        O679   1.261       .  A
N675        O680   1.263       .  A
N678        O682   1.262       .  A
N678        O681   1.262       .  A
C683        N701   1.352       .  A
C683        C720   1.473       .  S
C683       C1011   1.504       .  S
N684        N701   1.326       .  A
N684        N706   1.322       .  A
C685        N710   1.347       .  A
C685        C723   1.467       .  S
C685        H730   1.081       .  S
H686        C727   1.080       .  S
C687        N711   1.338       .  A
C687        C691   1.452       .  S
C687        H716   1.081       .  S
Co688      N1047   2.091   1_545  S
Co688       N696   2.088   1_545  S
Co688     Cl1755   2.453       .  S
N689        C727   1.342       .  A
N689        N696   1.318       .  A
N689      Co2054   2.080   1_565  S
Co690      N2053   2.092   1_445  S
Co690       N693   2.083   1_545  S
Co690      N1392   2.084   1_455  S
C691        N729   1.351       .  A
C691       C1000   1.461       .  S
N692        N699   1.319       .  A
N692        N722   1.326       .  A
N693        N711   1.320       .  A
N693        N729   1.324       .  A
N694        C723   1.353       .  A
N694        N704   1.322       .  A
H695        C720   1.081       .  S
N696        N717   1.325       .  A
N697        N715   1.321       .  A
N697        N702   1.324       .  A
C698        N702   1.347       .  A
C698        C726   1.453       .  S
C698        C916   1.462       .  S
N699        C714   1.338       .  A
N699      Co1403   2.097   1_465  S
C700        N728   1.344       .  A
C700        C703   1.467       .  S
C700        H734   1.079       .  S
C703        N724   1.351       .  A
C703        C941   1.485       .  S
N704        N710   1.320       .  A
N705        C731   1.337       .  A
N705        N707   1.321       .  A
N705      Co2085   2.080   1_455  S
N706        C720   1.350       .  A
N706      Co1029   2.116   1_554  S
N707        N735   1.333       .  A
N707       Co725   2.120       .  S
H708        C731   1.081       .  S
H709        C726   1.082       .  S
N710      Co1372   2.095       .  S
N712        N724   1.319       .  A
N712        N728   1.317       .  A
N712       Co721   2.079       .  S
C713        N717   1.353       .  A
C713        C727   1.463       .  S
C713        C969   1.485       .  S
C714        C733   1.468       .  S
C714        H718   1.081       .  S
N715        C726   1.340       .  A
N715      Co1066   2.073       .  S
C719        N735   1.359       .  A
C719        C731   1.458       .  S
C719        C955   1.494       .  S
Co721      N1381   2.088       .  S
Co721      N2069   2.090       .  S
Co721     Cl2096   2.434   1_554  S
N722        C733   1.349       .  A
C723        C983   1.488       .  S
Co725      N1056   2.078   1_554  S
Co725      Cl732   2.460   1_454  S
Cl732     Co1711   2.455       .  S
Cl732     Co2085   2.445   1_556  S
C733        C927   1.484       .  S
C736        C871   1.621       .  S
C736        C885   1.589       .  S
C736        C899   1.609       .  S
C736        C913   1.558       .  S
C737        C843   1.608       .  S
C737        C857   1.579       .  S
C737        C902   1.618       .  S
C737        C997   1.554       .  S
C738        C815   1.590       .  S
C738        C829   1.624       .  S
C738        C846   1.584       .  S
C738        C930   1.566       .  S
C739        C804   1.611       .  S
C739        C818   1.604       .  S
C739        C874   1.596       .  S
C739        C958   1.576       .  S
C740        C773   1.626       .  S
C740        C787   1.637       .  S
C740        C888   1.600       .  S
C740        C986   1.592       .  S
C741        C759   1.631       .  S
C741        C776   1.615       .  S
C741        C801   1.592       .  S
C741        C944   1.563       .  S
C742        C745   1.611       .  S
C742        C762   1.609       .  S
C742        C832   1.618       .  S
C742       C1014   1.577       .  S
C743        C748   1.599       .  S
C743        C790   1.611       .  S
C743        C860   1.605       .  S
C743        C972   1.592       .  S
C744        H751   1.062       .  S
C744        C745   1.425       .  A
C744        C749   1.411       .  A
C745        C746   1.442       .  A
C746        C747   1.418       .  A
C746        N753   1.425       .  S
C747        H752   1.084       .  S
C747        C748   1.414       .  A
C748        C749   1.411       .  A
C749        N750   1.432       .  S
N750        O754   1.257       .  A
N750        O755   1.262       .  A
N753        O757   1.262       .  A
N753        O756   1.259       .  A
C758        H765   1.077       .  S
C758        C759   1.415       .  A
C758        C763   1.436       .  A
C759        C760   1.435       .  A
C760        C761   1.403       .  A
C760        N767   1.429       .  S
C761        H766   1.077       .  S
C761        C762   1.407       .  A
C762        C763   1.430       .  A
C763        N764   1.430       .  S
N764        O768   1.261       .  A
N764        O769   1.262       .  A
N767        O771   1.262       .  A
N767        O770   1.259       .  A
C772        H779   1.067       .  S
C772        C773   1.422       .  A
C772        C777   1.427       .  A
C773        C774   1.429       .  A
C774        C775   1.417       .  A
C774        N781   1.431       .  S
C775        H780   1.082       .  S
C775        C776   1.418       .  A
C776        C777   1.432       .  A
C777        N778   1.427       .  S
N778        O782   1.256       .  A
N778        O783   1.260       .  A
N781        O785   1.262       .  A
N781        O784   1.264       .  A
C786        H793   1.078       .  S
C786        C787   1.413       .  A
C786        C791   1.412       .  A
C787        C788   1.432       .  A
C788        C789   1.433       .  A
C788        N795   1.431       .  S
C789        H794   1.078       .  S
C789        C790   1.416       .  A
C790        C791   1.440       .  A
C791        N792   1.422       .  S
N792        O796   1.261       .  A
N792        O797   1.252       .  A
N795        O799   1.262       .  A
N795        O798   1.262       .  A
C800        H807   1.082       .  S
C800        C801   1.421       .  A
C800        C805   1.441       .  A
C801        C802   1.398       .  A
C802        C803   1.378       .  A
C802        N809   1.407       .  S
C803        H808   1.058       .  S
C803        C804   1.401       .  A
C804        C805   1.447       .  A
C805        N806   1.429       .  S
N806        O810   1.262       .  A
N806        O811   1.262       .  A
N809        O813   1.254       .  A
N809        O812   1.259       .  A
C814        H821   1.085       .  S
C814        C815   1.389       .  A
C814        C819   1.369       .  A
C815        C816   1.432       .  A
C816        C817   1.443       .  A
C816        N823   1.426       .  S
C817        H822   1.078       .  S
C817        C818   1.428       .  A
C818        C819   1.419       .  A
C819        N820   1.405       .  S
N820        O824   1.253       .  A
N820        O825   1.247       .  A
N823        O827   1.262       .  A
N823        O826   1.262       .  A
C828        H835   1.079       .  S
C828        C829   1.430       .  A
C828        C833   1.453       .  A
C829        C830   1.405       .  A
C830        C831   1.399       .  A
C830        N837   1.437       .  S
C831        H836   1.070       .  S
C831        C832   1.416       .  A
C832        C833   1.453       .  A
C833        N834   1.435       .  S
N834        O838   1.262       .  A
N834        O839   1.259       .  A
N837        O841   1.257       .  A
N837        O840   1.263       .  A
C842        H849   1.079       .  S
C842        C843   1.431       .  A
C842        C847   1.409       .  A
C843        C844   1.413       .  A
C844        C845   1.408       .  A
C844        N851   1.443       .  S
C845        H850   1.082       .  S
C845        C846   1.428       .  A
C846        C847   1.409       .  A
C847        N848   1.437       .  S
N848        O852   1.262       .  A
N848        O853   1.262       .  A
N851        O855   1.263       .  A
N851        O854   1.260       .  A
C856        H863   1.086       .  S
C856        C857   1.392       .  A
C856        C861   1.382       .  A
C857        C858   1.432       .  A
C858        C859   1.434       .  A
C858        N865   1.434       .  S
C859        H864   1.073       .  S
C859        C860   1.425       .  A
C860        C861   1.432       .  A
C861        N862   1.426       .  S
N862        O866   1.255       .  A
N862        O867   1.261       .  A
N865        O869   1.262       .  A
N865        O868   1.262       .  A
C870        H877   1.079       .  S
C870        C871   1.415       .  A
C870        C875   1.428       .  A
C871        C872   1.435       .  A
C872        C873   1.400       .  A
C872        N879   1.430       .  S
C873        H878   1.075       .  S
C873        C874   1.406       .  A
C874        C875   1.438       .  A
C875        N876   1.431       .  S
N876        O880   1.262       .  A
N876        O881   1.262       .  A
N879        O883   1.258       .  A
N879        O882   1.262       .  A
C884        H891   1.067       .  S
C884        C885   1.393       .  A
C884        C889   1.400       .  A
C885        C886   1.426       .  A
C886        C887   1.430       .  A
C886        N893   1.432       .  S
C887        H892   1.078       .  S
C887        C888   1.427       .  A
C888        C889   1.423       .  A
C889        N890   1.437       .  S
N890        O894   1.249       .  A
N890        O895   1.256       .  A
N893        O897   1.261       .  A
N893        O896   1.261       .  A
C898        H905   1.065       .  S
C898        C899   1.408       .  A
C898        C903   1.415       .  A
C899        C900   1.427       .  A
C900        C901   1.418       .  A
C900        N907   1.432       .  S
C901        H906   1.079       .  S
C901        C902   1.420       .  A
C902        C903   1.429       .  A
C903        N904   1.423       .  S
N904        O908   1.264       .  A
N904        O909   1.262       .  A
N907        O911   1.261       .  A
N907        O910   1.260       .  A
C912        H919   1.068       .  S
C912        C913   1.410       .  A
C912        C917   1.395       .  A
C913        C914   1.440       .  A
C914        C915   1.401       .  A
C914        N921   1.429       .  S
C915        H920   1.085       .  S
C915        C916   1.389       .  A
C916        C917   1.397       .  A
C917        N918   1.430       .  S
N918        O922   1.262       .  A
N918        O923   1.262       .  A
N921        O925   1.261       .  A
N921        O924   1.262       .  A
C926        H933   1.083       .  S
C926        C927   1.385       .  A
C926        C931   1.390       .  A
C927        C928   1.407       .  A
C928        C929   1.407       .  A
C928        N935   1.423       .  S
C929        H934   1.080       .  S
C929        C930   1.413       .  A
C930        C931   1.444       .  A
C931        N932   1.426       .  S
N932        O936   1.263       .  A
N932        O937   1.263       .  A
N935        O939   1.260       .  A
N935        O938   1.262       .  A
C940        H947   1.084       .  S
C940        C941   1.398       .  A
C940        C945   1.396       .  A
C941        C942   1.407       .  A
C942        C943   1.401       .  A
C942        N949   1.426       .  S
C943        H948   1.070       .  S
C943        C944   1.407       .  A
C944        C945   1.435       .  A
C945        N946   1.432       .  S
N946        O950   1.262       .  A
N946        O951   1.262       .  A
N949        O953   1.261       .  A
N949        O952   1.262       .  A
C954        H961   1.084       .  S
C954        C955   1.400       .  A
C954        C959   1.415       .  A
C955        C956   1.407       .  A
C956        C957   1.399       .  A
C956        N963   1.430       .  S
C957        H962   1.077       .  S
C957        C958   1.419       .  A
C958        C959   1.434       .  A
C959        N960   1.430       .  S
N960        O964   1.260       .  A
N960        O965   1.262       .  A
N963        O967   1.262       .  A
N963        O966   1.262       .  A
C968        H975   1.085       .  S
C968        C969   1.391       .  A
C968        C973   1.403       .  A
C969        C970   1.403       .  A
C970        C971   1.402       .  A
C970        N977   1.429       .  S
C971        H976   1.073       .  S
C971        C972   1.427       .  A
C972        C973   1.436       .  A
C973        N974   1.423       .  S
N974        O978   1.262       .  A
N974        O979   1.264       .  A
N977        O981   1.262       .  A
N977        O980   1.262       .  A
C982        H989   1.084       .  S
C982        C983   1.390       .  A
C982        C987   1.401       .  A
C983        C984   1.403       .  A
C984        C985   1.409       .  A
C984        N991   1.428       .  S
C985        H990   1.076       .  S
C985        C986   1.417       .  A
C986        C987   1.455       .  A
C987        N988   1.440       .  S
N988        O992   1.257       .  A
N988        O993   1.263       .  A
N991        O995   1.262       .  A
N991        O994   1.262       .  A
C996       H1003   1.078       .  S
C996        C997   1.419       .  A
C996       C1001   1.397       .  A
C997        C998   1.436       .  A
C998        C999   1.398       .  A
C998       N1005   1.430       .  S
C999       H1004   1.085       .  S
C999       C1000   1.390       .  A
C1000      C1001   1.397       .  A
C1001      N1002   1.430       .  S
N1002      O1006   1.262       .  A
N1002      O1007   1.261       .  A
N1005      O1009   1.261       .  A
N1005      O1008   1.263       .  A
C1010      H1017   1.083       .  S
C1010      C1011   1.403       .  A
C1010      C1015   1.414       .  A
C1011      C1012   1.411       .  A
C1012      C1013   1.405       .  A
C1012      N1019   1.430       .  S
C1013      H1018   1.078       .  S
C1013      C1014   1.418       .  A
C1014      C1015   1.431       .  A
C1015      N1016   1.428       .  S
N1016      O1020   1.261       .  A
N1016      O1021   1.263       .  A
N1019      O1023   1.262       .  A
N1019      O1022   1.262       .  A
C1024      N1042   1.348       .  A
C1024      C1061   1.468       .  S
C1024      C1352   1.485       .  S
N1025      N1042   1.320       .  A
N1025      N1047   1.319       .  A
C1026      N1051   1.341       .  A
C1026      C1064   1.464       .  S
C1026      H1071   1.082       .  S
H1027      C1068   1.082       .  S
C1028      N1052   1.348       .  A
C1028      C1032   1.467       .  S
C1028      H1057   1.081       .  S
Co1029     N1037   2.088       .  S
Co1029    Cl1414   2.465   1_556  S
N1030      C1068   1.341       .  A
N1030      N1037   1.321       .  A
N1030     Co2395   2.090       .  S
Co1031     N2394   2.096   1_455  S
Co1031     N1034   2.092       .  S
Co1031     N1733   2.097   1_465  S
C1032      N1070   1.353       .  A
C1032      C1341   1.487       .  S
N1033      N1040   1.318       .  A
N1033      N1063   1.327       .  A
N1034      N1052   1.321       .  A
N1034      N1070   1.322       .  A
N1035      C1064   1.351       .  A
N1035      N1045   1.326       .  A
H1036      C1061   1.081       .  S
N1037      N1058   1.327       .  A
N1038      N1056   1.319       .  A
N1038      N1043   1.320       .  A
C1039      N1043   1.347       .  A
C1039      C1067   1.464       .  S
C1039      C1257   1.481       .  S
N1040      C1055   1.341       .  A
N1040     Co1744   2.104   1_465  S
C1041      N1069   1.341       .  A
C1041      C1044   1.456       .  S
C1041      H1075   1.082       .  S
C1044      N1065   1.351       .  A
C1044      C1282   1.472       .  S
N1045      N1051   1.322       .  A
N1046      C1072   1.339       .  A
N1046      N1048   1.320       .  A
N1046     Co2426   2.090   1_455  S
N1047      C1061   1.344       .  A
N1048      N1076   1.331       .  A
N1048     Co1066   2.109       .  S
H1049      C1072   1.081       .  S
H1050      C1067   1.081       .  S
N1051     Co1713   2.099       .  S
N1053      N1065   1.326       .  A
N1053      N1069   1.321       .  A
N1053     Co1062   2.093       .  S
C1054      N1058   1.350       .  A
C1054      C1068   1.456       .  S
C1054      C1310   1.475       .  S
C1055      C1074   1.471       .  S
C1055      H1059   1.082       .  S
N1056      C1067   1.342       .  A
C1060      N1076   1.357       .  A
C1060      C1072   1.462       .  S
C1060      C1296   1.493       .  S
Co1062     N1722   2.098       .  S
Co1062     N2410   2.088       .  S
Co1062    Cl2437   2.442       .  S
N1063      C1074   1.348       .  A
C1064      C1324   1.483       .  S
Co1066    Cl1073   2.469   1_455  S
Cl1073    Co1370   2.466       .  S
Cl1073    Co2426   2.434       .  S
C1074      C1268   1.485       .  S
C1077      C1212   1.611       .  S
C1077      C1226   1.595       .  S
C1077      C1240   1.619       .  S
C1077      C1254   1.570       .  S
C1078      C1184   1.598       .  S
C1078      C1198   1.604       .  S
C1078      C1243   1.630       .  S
C1078      C1338   1.568       .  S
C1079      C1156   1.588       .  S
C1079      C1170   1.610       .  S
C1079      C1187   1.588       .  S
C1079      C1271   1.564       .  S
C1080      C1145   1.607       .  S
C1080      C1159   1.595       .  S
C1080      C1215   1.576       .  S
C1080      C1299   1.576       .  S
C1081      C1114   1.606       .  S
C1081      C1128   1.619       .  S
C1081      C1229   1.601       .  S
C1081      C1327   1.567       .  S
C1082      C1100   1.617       .  S
C1082      C1117   1.602       .  S
C1082      C1142   1.596       .  S
C1082      C1285   1.571       .  S
C1083      C1086   1.617       .  S
C1083      C1103   1.625       .  S
C1083      C1173   1.625       .  S
C1083      C1355   1.560       .  S
C1084      C1089   1.597       .  S
C1084      C1131   1.613       .  S
C1084      C1201   1.597       .  S
C1084      C1313   1.569       .  S
C1085      H1092   1.052       .  S
C1085      C1086   1.424       .  A
C1085      C1090   1.413       .  A
C1086      C1087   1.435       .  A
C1087      C1088   1.419       .  A
C1087      N1094   1.434       .  S
C1088      H1093   1.081       .  S
C1088      C1089   1.421       .  A
C1089      C1090   1.408       .  A
C1090      N1091   1.438       .  S
N1091      O1095   1.263       .  A
N1091      O1096   1.261       .  A
N1094      O1098   1.262       .  A
N1094      O1097   1.261       .  A
C1099      H1106   1.056       .  S
C1099      C1100   1.414       .  A
C1099      C1104   1.419       .  A
C1100      C1101   1.440       .  A
C1101      C1102   1.415       .  A
C1101      N1108   1.437       .  S
C1102      H1107   1.075       .  S
C1102      C1103   1.420       .  A
C1103      C1104   1.423       .  A
C1104      N1105   1.439       .  S
N1105      O1109   1.263       .  A
N1105      O1110   1.262       .  A
N1108      O1112   1.261       .  A
N1108      O1111   1.261       .  A
C1113      H1120   1.066       .  S
C1113      C1114   1.417       .  A
C1113      C1118   1.424       .  A
C1114      C1115   1.419       .  A
C1115      C1116   1.396       .  A
C1115      N1122   1.421       .  S
C1116      H1121   1.076       .  S
C1116      C1117   1.413       .  A
C1117      C1118   1.431       .  A
C1118      N1119   1.438       .  S
N1119      O1123   1.263       .  A
N1119      O1124   1.260       .  A
N1122      O1126   1.260       .  A
N1122      O1125   1.252       .  A
C1127      H1134   1.074       .  S
C1127      C1128   1.422       .  A
C1127      C1132   1.430       .  A
C1128      C1129   1.412       .  A
C1129      C1130   1.414       .  A
C1129      N1136   1.438       .  S
C1130      H1135   1.019       .  S
C1130      C1131   1.424       .  A
C1131      C1132   1.441       .  A
C1132      N1133   1.435       .  S
N1133      O1137   1.260       .  A
N1133      O1138   1.261       .  A
N1136      O1140   1.263       .  A
N1136      O1139   1.262       .  A
C1141      H1148   1.075       .  S
C1141      C1142   1.425       .  A
C1141      C1146   1.446       .  A
C1142      C1143   1.405       .  A
C1143      C1144   1.373       .  A
C1143      N1150   1.408       .  S
C1144      H1149   1.062       .  S
C1144      C1145   1.402       .  A
C1145      C1146   1.449       .  A
C1146      N1147   1.431       .  S
N1147      O1151   1.261       .  A
N1147      O1152   1.262       .  A
N1150      O1154   1.258       .  A
N1150      O1153   1.256       .  A
C1155      H1162   1.080       .  S
C1155      C1156   1.395       .  A
C1155      C1160   1.365       .  A
C1156      C1157   1.429       .  A
C1157      C1158   1.436       .  A
C1157      N1164   1.425       .  S
C1158      H1163   1.079       .  S
C1158      C1159   1.424       .  A
C1159      C1160   1.432       .  A
C1160      N1161   1.425       .  S
N1161      O1165   1.256       .  A
N1161      O1166   1.260       .  A
N1164      O1168   1.262       .  A
N1164      O1167   1.262       .  A
C1169      H1176   1.081       .  S
C1169      C1170   1.417       .  A
C1169      C1174   1.454       .  A
C1170      C1171   1.401       .  A
C1171      C1172   1.386       .  A
C1171      N1178   1.436       .  S
C1172      H1177   1.069       .  S
C1172      C1173   1.414       .  A
C1173      C1174   1.472       .  A
C1174      N1175   1.448       .  S
N1175      O1179   1.263       .  A
N1175      O1180   1.255       .  A
N1178      O1182   1.259       .  A
N1178      O1181   1.262       .  A
C1183      H1190   1.083       .  S
C1183      C1184   1.424       .  A
C1183      C1188   1.395       .  A
C1184      C1185   1.419       .  A
C1185      C1186   1.408       .  A
C1185      N1192   1.421       .  S
C1186      H1191   1.084       .  S
C1186      C1187   1.425       .  A
C1187      C1188   1.408       .  A
C1188      N1189   1.417       .  S
N1189      O1193   1.262       .  A
N1189      O1194   1.258       .  A
N1192      O1196   1.262       .  A
N1192      O1195   1.262       .  A
C1197      H1204   1.082       .  S
C1197      C1198   1.403       .  A
C1197      C1202   1.391       .  A
C1198      C1199   1.428       .  A
C1199      C1200   1.430       .  A
C1199      N1206   1.426       .  S
C1200      H1205   1.079       .  S
C1200      C1201   1.428       .  A
C1201      C1202   1.426       .  A
C1202      N1203   1.436       .  S
N1203      O1207   1.255       .  A
N1203      O1208   1.259       .  A
N1206      O1210   1.262       .  A
N1206      O1209   1.262       .  A
C1211      H1218   1.072       .  S
C1211      C1212   1.415       .  A
C1211      C1216   1.414       .  A
C1212      C1213   1.431       .  A
C1213      C1214   1.412       .  A
C1213      N1220   1.446       .  S
C1214      H1219   1.072       .  S
C1214      C1215   1.403       .  A
C1215      C1216   1.433       .  A
C1216      N1217   1.432       .  S
N1217      O1221   1.261       .  A
N1217      O1222   1.262       .  A
N1220      O1224   1.263       .  A
N1220      O1223   1.259       .  A
C1225      H1232   1.074       .  S
C1225      C1226   1.394       .  A
C1225      C1230   1.383       .  A
C1226      C1227   1.437       .  A
C1227      C1228   1.447       .  A
C1227      N1234   1.429       .  S
C1228      H1233   1.081       .  S
C1228      C1229   1.433       .  A
C1229      C1230   1.411       .  A
C1230      N1231   1.408       .  S
N1231      O1235   1.252       .  A
N1231      O1236   1.255       .  A
N1234      O1238   1.261       .  A
N1234      O1237   1.260       .  A
C1239      H1246   1.079       .  S
C1239      C1240   1.415       .  A
C1239      C1244   1.438       .  A
C1240      C1241   1.436       .  A
C1241      C1242   1.401       .  A
C1241      N1248   1.437       .  S
C1242      H1247   1.078       .  S
C1242      C1243   1.417       .  A
C1243      C1244   1.444       .  A
C1244      N1245   1.440       .  S
N1245      O1249   1.263       .  A
N1245      O1250   1.259       .  A
N1248      O1252   1.263       .  A
N1248      O1251   1.256       .  A
C1253      H1260   1.075       .  S
C1253      C1254   1.421       .  A
C1253      C1258   1.391       .  A
C1254      C1255   1.424       .  A
C1255      C1256   1.406       .  A
C1255      N1262   1.421       .  S
C1256      H1261   1.083       .  S
C1256      C1257   1.398       .  A
C1257      C1258   1.403       .  A
C1258      N1259   1.430       .  S
N1259      O1263   1.262       .  A
N1259      O1264   1.262       .  A
N1262      O1266   1.262       .  A
N1262      O1265   1.263       .  A
C1267      H1274   1.084       .  S
C1267      C1268   1.387       .  A
C1267      C1272   1.392       .  A
C1268      C1269   1.409       .  A
C1269      C1270   1.409       .  A
C1269      N1276   1.426       .  S
C1270      H1275   1.081       .  S
C1270      C1271   1.414       .  A
C1271      C1272   1.443       .  A
C1272      N1273   1.429       .  S
N1273      O1277   1.262       .  A
N1273      O1278   1.263       .  A
N1276      O1280   1.261       .  A
N1276      O1279   1.262       .  A
C1281      H1288   1.084       .  S
C1281      C1282   1.394       .  A
C1281      C1286   1.406       .  A
C1282      C1283   1.395       .  A
C1283      C1284   1.397       .  A
C1283      N1290   1.429       .  S
C1284      H1289   1.076       .  S
C1284      C1285   1.423       .  A
C1285      C1286   1.441       .  A
C1286      N1287   1.431       .  S
N1287      O1291   1.262       .  A
N1287      O1292   1.263       .  A
N1290      O1294   1.262       .  A
N1290      O1293   1.262       .  A
C1295      H1302   1.084       .  S
C1295      C1296   1.404       .  A
C1295      C1300   1.416       .  A
C1296      C1297   1.405       .  A
C1297      C1298   1.396       .  A
C1297      N1304   1.431       .  S
C1298      H1303   1.077       .  S
C1298      C1299   1.422       .  A
C1299      C1300   1.433       .  A
C1300      N1301   1.432       .  S
N1301      O1305   1.262       .  A
N1301      O1306   1.262       .  A
N1304      O1308   1.262       .  A
N1304      O1307   1.262       .  A
C1309      H1316   1.085       .  S
C1309      C1310   1.391       .  A
C1309      C1314   1.403       .  A
C1310      C1311   1.402       .  A
C1311      C1312   1.403       .  A
C1311      N1318   1.429       .  S
C1312      H1317   1.080       .  S
C1312      C1313   1.417       .  A
C1313      C1314   1.442       .  A
C1314      N1315   1.431       .  S
N1315      O1319   1.261       .  A
N1315      O1320   1.262       .  A
N1318      O1322   1.262       .  A
N1318      O1321   1.262       .  A
C1323      H1330   1.084       .  S
C1323      C1324   1.391       .  A
C1323      C1328   1.400       .  A
C1324      C1325   1.403       .  A
C1325      C1326   1.404       .  A
C1325      N1332   1.426       .  S
C1326      H1331   1.079       .  S
C1326      C1327   1.416       .  A
C1327      C1328   1.443       .  A
C1328      N1329   1.430       .  S
N1329      O1333   1.262       .  A
N1329      O1334   1.261       .  A
N1332      O1336   1.261       .  A
N1332      O1335   1.262       .  A
C1337      H1344   1.083       .  S
C1337      C1338   1.416       .  A
C1337      C1342   1.410       .  A
C1338      C1339   1.442       .  A
C1339      C1340   1.393       .  A
C1339      N1346   1.429       .  S
C1340      H1345   1.085       .  S
C1340      C1341   1.390       .  A
C1341      C1342   1.407       .  A
C1342      N1343   1.423       .  S
N1343      O1347   1.261       .  A
N1343      O1348   1.262       .  A
N1346      O1350   1.262       .  A
N1346      O1349   1.262       .  A
C1351      H1358   1.083       .  S
C1351      C1352   1.399       .  A
C1351      C1356   1.406       .  A
C1352      C1353   1.406       .  A
C1353      C1354   1.392       .  A
C1353      N1360   1.430       .  S
C1354      H1359   1.073       .  S
C1354      C1355   1.417       .  A
C1355      C1356   1.432       .  A
C1356      N1357   1.427       .  S
N1357      O1361   1.261       .  A
N1357      O1362   1.262       .  A
N1360      O1364   1.262       .  A
N1360      O1363   1.262       .  A
C1365      N1383   1.347       .  A
C1365      C1402   1.464       .  S
C1365      C1693   1.478       .  S
N1366      N1383   1.320       .  A
N1366      N1388   1.319       .  A
N1366     Co2085   2.073       .  S
C1367      N1392   1.341       .  A
C1367      C1405   1.457       .  S
C1367      H1412   1.081       .  S
H1368      C1409   1.082       .  S
C1369      N1393   1.344       .  A
C1369      C1373   1.462       .  S
C1369      H1398   1.081       .  S
Co1370     N1729   2.093       .  S
Co1370     N1378   2.091       .  S
Co1370     N2433   2.086       .  S
Co1370     N2068   2.089       .  S
N1371      C1409   1.343       .  A
N1371      N1378   1.320       .  A
Co1372     N1375   2.086       .  S
Co1372     N2061   2.083       .  S
Co1372    Cl2437   2.447       .  S
C1373      N1411   1.353       .  A
C1373      C1682   1.476       .  S
N1374      N1381   1.316       .  A
N1374      N1404   1.323       .  A
N1374     Co2089   2.068       .  S
N1375      N1393   1.320       .  A
N1375      N1411   1.321       .  A
N1376      C1405   1.353       .  A
N1376      N1386   1.325       .  A
H1377      C1402   1.082       .  S
N1378      N1399   1.328       .  A
N1379      N1397   1.320       .  A
N1379      N1384   1.321       .  A
N1379     Co2054   2.070       .  S
C1380      N1384   1.345       .  A
C1380      C1408   1.455       .  S
C1380      C1598   1.460       .  S
N1381      C1396   1.341       .  A
C1382      N1410   1.343       .  A
C1382      C1385   1.459       .  S
C1382      H1416   1.081       .  S
C1385      N1406   1.354       .  A
C1385      C1623   1.481       .  S
N1386      N1392   1.319       .  A
N1386     Co2052   2.091       .  S
N1387      C1413   1.342       .  A
N1387      N1389   1.321       .  A
N1388      C1402   1.342       .  A
N1388     Co1711   2.086   1_554  S
N1389      N1417   1.331       .  A
N1389     Co1407   2.108   1_545  S
H1390      C1413   1.081       .  S
H1391      C1408   1.082       .  S
N1393     Co2430   2.089       .  S
N1394      N1406   1.328       .  A
N1394      N1410   1.320       .  A
N1394     Co1403   2.100       .  S
C1395      N1399   1.352       .  A
C1395      C1409   1.459       .  S
C1395      C1651   1.481       .  S
C1396      C1415   1.468       .  S
C1396      H1400   1.080       .  S
N1397      C1408   1.338       .  A
N1397     Co1748   2.071       .  S
C1401      N1417   1.356       .  A
C1401      C1413   1.465       .  S
C1401      C1637   1.496       .  S
Co1403     N2048   2.086   1_545  S
N1404      C1415   1.348       .  A
C1405      C1665   1.470       .  S
Co1407     N2056   2.072       .  S
Co1407     N2416   2.101   1_554  S
Co1407     N1738   2.074   1_564  S
Co1407    Cl1414   2.467       .  S
N1410     Co2393   2.092   1_554  S
Cl1414    Co2395   2.440   1_554  S
C1415      C1609   1.487       .  S
C1418      C1553   1.613       .  S
C1418      C1567   1.572       .  S
C1418      C1581   1.601       .  S
C1418      C1595   1.562       .  S
C1419      C1525   1.606       .  S
C1419      C1539   1.591       .  S
C1419      C1584   1.627       .  S
C1419      C1679   1.560       .  S
C1420      C1497   1.580       .  S
C1420      C1511   1.614       .  S
C1420      C1528   1.601       .  S
C1420      C1612   1.570       .  S
C1421      C1486   1.605       .  S
C1421      C1500   1.596       .  S
C1421      C1556   1.582       .  S
C1421      C1640   1.577       .  S
C1422      C1455   1.613       .  S
C1422      C1469   1.633       .  S
C1422      C1570   1.583       .  S
C1422      C1668   1.583       .  S
C1423      C1441   1.609       .  S
C1423      C1458   1.595       .  S
C1423      C1483   1.598       .  S
C1423      C1626   1.581       .  S
C1424      C1427   1.619       .  S
C1424      C1444   1.641       .  S
C1424      C1514   1.615       .  S
C1424      C1696   1.575       .  S
C1425      C1430   1.591       .  S
C1425      C1472   1.604       .  S
C1425      C1542   1.601       .  S
C1425      C1654   1.571       .  S
C1426      H1433   1.072       .  S
C1426      C1427   1.427       .  A
C1426      C1431   1.420       .  A
C1427      C1428   1.436       .  A
C1428      C1429   1.403       .  A
C1428      N1435   1.411       .  S
C1429      H1434   1.082       .  S
C1429      C1430   1.403       .  A
C1430      C1431   1.411       .  A
C1431      N1432   1.432       .  S
N1432      O1436   1.262       .  A
N1432      O1437   1.262       .  A
N1435      O1439   1.262       .  A
N1435      O1438   1.259       .  A
C1440      H1447   1.071       .  S
C1440      C1441   1.418       .  A
C1440      C1445   1.415       .  A
C1441      C1442   1.436       .  A
C1442      C1443   1.421       .  A
C1442      N1449   1.435       .  S
C1443      H1448   1.069       .  S
C1443      C1444   1.427       .  A
C1444      C1445   1.423       .  A
C1445      N1446   1.439       .  S
N1446      O1450   1.262       .  A
N1446      O1451   1.264       .  A
N1449      O1453   1.262       .  A
N1449      O1452   1.261       .  A
C1454      H1461   1.077       .  S
C1454      C1455   1.412       .  A
C1454      C1459   1.433       .  A
C1455      C1456   1.423       .  A
C1456      C1457   1.407       .  A
C1456      N1463   1.435       .  S
C1457      H1462   1.079       .  S
C1457      C1458   1.418       .  A
C1458      C1459   1.437       .  A
C1459      N1460   1.432       .  S
N1460      O1464   1.260       .  A
N1460      O1465   1.262       .  A
N1463      O1467   1.263       .  A
N1463      O1466   1.263       .  A
C1468      H1475   1.081       .  S
C1468      C1469   1.425       .  A
C1468      C1473   1.429       .  A
C1469      C1470   1.431       .  A
C1470      C1471   1.415       .  A
C1470      N1477   1.433       .  S
C1471      H1476   1.060       .  S
C1471      C1472   1.413       .  A
C1472      C1473   1.434       .  A
C1473      N1474   1.436       .  S
N1474      O1478   1.259       .  A
N1474      O1479   1.261       .  A
N1477      O1481   1.261       .  A
N1477      O1480   1.262       .  A
C1482      H1489   1.070       .  S
C1482      C1483   1.423       .  A
C1482      C1487   1.441       .  A
C1483      C1484   1.401       .  A
C1484      C1485   1.379       .  A
C1484      N1491   1.401       .  S
C1485      H1490   1.060       .  S
C1485      C1486   1.398       .  A
C1486      C1487   1.444       .  A
C1487      N1488   1.429       .  S
N1488      O1492   1.261       .  A
N1488      O1493   1.262       .  A
N1491      O1495   1.258       .  A
N1491      O1494   1.252       .  A
C1496      H1503   1.085       .  S
C1496      C1497   1.398       .  A
C1496      C1501   1.368       .  A
C1497      C1498   1.429       .  A
C1498      C1499   1.433       .  A
C1498      N1505   1.431       .  S
C1499      H1504   1.078       .  S
C1499      C1500   1.424       .  A
C1500      C1501   1.429       .  A
C1501      N1502   1.424       .  S
N1502      O1506   1.258       .  A
N1502      O1507   1.258       .  A
N1505      O1509   1.261       .  A
N1505      O1508   1.261       .  A
C1510      H1517   1.076       .  S
C1510      C1511   1.416       .  A
C1510      C1515   1.440       .  A
C1511      C1512   1.412       .  A
C1512      C1513   1.389       .  A
C1512      N1519   1.442       .  S
C1513      H1518   1.061       .  S
C1513      C1514   1.413       .  A
C1514      C1515   1.456       .  A
C1515      N1516   1.441       .  S
N1516      O1520   1.263       .  A
N1516      O1521   1.259       .  A
N1519      O1523   1.259       .  A
N1519      O1522   1.261       .  A
C1524      H1531   1.081       .  S
C1524      C1525   1.437       .  A
C1524      C1529   1.419       .  A
C1525      C1526   1.417       .  A
C1526      C1527   1.402       .  A
C1526      N1533   1.423       .  S
C1527      H1532   1.080       .  S
C1527      C1528   1.423       .  A
C1528      C1529   1.409       .  A
C1529      N1530   1.442       .  S
N1530      O1534   1.263       .  A
N1530      O1535   1.263       .  A
N1533      O1537   1.264       .  A
N1533      O1536   1.262       .  A
C1538      H1545   1.080       .  S
C1538      C1539   1.397       .  A
C1538      C1543   1.387       .  A
C1539      C1540   1.428       .  A
C1540      C1541   1.427       .  A
C1540      N1547   1.427       .  S
C1541      H1546   1.079       .  S
C1541      C1542   1.426       .  A
C1542      C1543   1.436       .  A
C1543      N1544   1.441       .  S
N1544      O1548   1.258       .  A
N1544      O1549   1.263       .  A
N1547      O1551   1.262       .  A
N1547      O1550   1.262       .  A
C1552      H1559   1.075       .  S
C1552      C1553   1.413       .  A
C1552      C1557   1.422       .  A
C1553      C1554   1.432       .  A
C1554      C1555   1.398       .  A
C1554      N1561   1.434       .  S
C1555      H1560   1.073       .  S
C1555      C1556   1.406       .  A
C1556      C1557   1.437       .  A
C1557      N1558   1.434       .  S
N1558      O1562   1.262       .  A
N1558      O1563   1.262       .  A
N1561      O1565   1.257       .  A
N1561      O1564   1.262       .  A
C1566      H1573   1.072       .  S
C1566      C1567   1.396       .  A
C1566      C1571   1.379       .  A
C1567      C1568   1.425       .  A
C1568      C1569   1.435       .  A
C1568      N1575   1.427       .  S
C1569      H1574   1.080       .  S
C1569      C1570   1.427       .  A
C1570      C1571   1.405       .  A
C1571      N1572   1.414       .  S
N1572      O1576   1.253       .  A
N1572      O1577   1.259       .  A
N1575      O1579   1.261       .  A
N1575      O1578   1.262       .  A
C1580      H1587   1.076       .  S
C1580      C1581   1.414       .  A
C1580      C1585   1.430       .  A
C1581      C1582   1.432       .  A
C1582      C1583   1.393       .  A
C1582      N1589   1.432       .  S
C1583      H1588   1.078       .  S
C1583      C1584   1.415       .  A
C1584      C1585   1.443       .  A
C1585      N1586   1.439       .  S
N1586      O1590   1.263       .  A
N1586      O1591   1.259       .  A
N1589      O1593   1.260       .  A
N1589      O1592   1.256       .  A
C1594      H1601   1.070       .  S
C1594      C1595   1.418       .  A
C1594      C1599   1.391       .  A
C1595      C1596   1.437       .  A
C1596      C1597   1.401       .  A
C1596      N1603   1.426       .  S
C1597      H1602   1.085       .  S
C1597      C1598   1.387       .  A
C1598      C1599   1.396       .  A
C1599      N1600   1.430       .  S
N1600      O1604   1.262       .  A
N1600      O1605   1.262       .  A
N1603      O1607   1.262       .  A
N1603      O1606   1.262       .  A
C1608      H1615   1.082       .  S
C1608      C1609   1.394       .  A
C1608      C1613   1.400       .  A
C1609      C1610   1.407       .  A
C1610      C1611   1.400       .  A
C1610      N1617   1.429       .  S
C1611      H1616   1.078       .  S
C1611      C1612   1.419       .  A
C1612      C1613   1.437       .  A
C1613      N1614   1.426       .  S
N1614      O1618   1.263       .  A
N1614      O1619   1.262       .  A
N1617      O1621   1.262       .  A
N1617      O1620   1.262       .  A
C1622      H1629   1.085       .  S
C1622      C1623   1.393       .  A
C1622      C1627   1.407       .  A
C1623      C1624   1.398       .  A
C1624      C1625   1.404       .  A
C1624      N1631   1.429       .  S
C1625      H1630   1.077       .  S
C1625      C1626   1.425       .  A
C1626      C1627   1.437       .  A
C1627      N1628   1.428       .  S
N1628      O1632   1.262       .  A
N1628      O1633   1.259       .  A
N1631      O1635   1.262       .  A
N1631      O1634   1.262       .  A
C1636      H1643   1.084       .  S
C1636      C1637   1.404       .  A
C1636      C1641   1.417       .  A
C1637      C1638   1.405       .  A
C1638      C1639   1.397       .  A
C1638      N1645   1.430       .  S
C1639      H1644   1.077       .  S
C1639      C1640   1.420       .  A
C1640      C1641   1.436       .  A
C1641      N1642   1.435       .  S
N1642      O1646   1.262       .  A
N1642      O1647   1.262       .  A
N1645      O1649   1.262       .  A
N1645      O1648   1.262       .  A
C1650      H1657   1.084       .  S
C1650      C1651   1.395       .  A
C1650      C1655   1.407       .  A
C1651      C1652   1.402       .  A
C1652      C1653   1.402       .  A
C1652      N1659   1.429       .  S
C1653      H1658   1.079       .  S
C1653      C1654   1.418       .  A
C1654      C1655   1.440       .  A
C1655      N1656   1.432       .  S
N1656      O1660   1.261       .  A
N1656      O1661   1.262       .  A
N1659      O1663   1.262       .  A
N1659      O1662   1.262       .  A
C1664      H1671   1.085       .  S
C1664      C1665   1.384       .  A
C1664      C1669   1.404       .  A
C1665      C1666   1.394       .  A
C1666      C1667   1.400       .  A
C1666      N1673   1.429       .  S
C1667      H1672   1.074       .  S
C1667      C1668   1.424       .  A
C1668      C1669   1.457       .  A
C1669      N1670   1.439       .  S
N1670      O1674   1.264       .  A
N1670      O1675   1.259       .  A
N1673      O1677   1.261       .  A
N1673      O1676   1.262       .  A
C1678      H1685   1.082       .  S
C1678      C1679   1.414       .  A
C1678      C1683   1.405       .  A
C1679      C1680   1.432       .  A
C1680      C1681   1.391       .  A
C1680      N1687   1.426       .  S
C1681      H1686   1.085       .  S
C1681      C1682   1.391       .  A
C1682      C1683   1.405       .  A
C1683      N1684   1.425       .  S
N1684      O1688   1.262       .  A
N1684      O1689   1.261       .  A
N1687      O1691   1.262       .  A
N1687      O1690   1.263       .  A
C1692      H1699   1.084       .  S
C1692      C1693   1.394       .  A
C1692      C1697   1.406       .  A
C1693      C1694   1.401       .  A
C1694      C1695   1.392       .  A
C1694      N1701   1.431       .  S
C1695      H1700   1.076       .  S
C1695      C1696   1.424       .  A
C1696      C1697   1.437       .  A
C1697      N1698   1.428       .  S
N1698      O1702   1.262       .  A
N1698      O1703   1.263       .  A
N1701      O1705   1.262       .  A
N1701      O1704   1.262       .  A
C1706      N1724   1.347       .  A
C1706      C1743   1.467       .  S
C1706      C2034   1.485       .  S
N1707      N1724   1.320       .  A
N1707      N1729   1.320       .  A
N1707     Co2426   2.079       .  S
C1708      N1733   1.344       .  A
C1708      C1746   1.462       .  S
C1708      H1753   1.081       .  S
H1709      C1750   1.081       .  S
C1710      N1734   1.341       .  A
C1710      C1714   1.457       .  S
C1710      H1739   1.081       .  S
Co1711     N1719   2.082       .  S
Co1711     N2092   2.086   1_556  S
Co1711     N2409   2.080       .  S
N1712      C1750   1.344       .  A
N1712      N1719   1.321       .  A
Co1713     N1716   2.091       .  S
Co1713     N2402   2.088       .  S
Co1713    Cl2096   2.446       .  S
C1714      N1752   1.352       .  A
C1714      C2023   1.467       .  S
N1715      N1722   1.318       .  A
N1715      N1745   1.327       .  A
N1715     Co2430   2.075       .  S
N1716      N1734   1.320       .  A
N1716      N1752   1.324       .  A
N1717      C1746   1.348       .  A
N1717      N1727   1.322       .  A
H1718      C1743   1.081       .  S
N1719      N1740   1.325       .  A
N1720      N1738   1.320       .  A
N1720      N1725   1.323       .  A
N1720     Co2395   2.083   1_545  S
C1721      N1725   1.347       .  A
C1721      C1749   1.456       .  S
C1721      C1939   1.464       .  S
N1722      C1737   1.341       .  A
C1723      N1751   1.342       .  A
C1723      C1726   1.456       .  S
C1723      H1757   1.081       .  S
C1726      N1747   1.353       .  A
C1726      C1964   1.476       .  S
N1727      N1733   1.321       .  A
N1727     Co2393   2.080       .  S
N1728      C1754   1.338       .  A
N1728      N1730   1.320       .  A
N1729      C1743   1.345       .  A
N1730      N1758   1.332       .  A
N1730     Co1748   2.116       .  S
H1731      C1754   1.080       .  S
H1732      C1749   1.082       .  S
N1734     Co2089   2.086   1_556  S
N1735      N1747   1.327       .  A
N1735      N1751   1.321       .  A
N1735     Co1744   2.099       .  S
C1736      N1740   1.348       .  A
C1736      C1750   1.461       .  S
C1736      C1992   1.475       .  S
C1737      C1756   1.469       .  S
C1737      H1741   1.081       .  S
N1738      C1749   1.341       .  A
C1742      N1758   1.359       .  A
C1742      C1754   1.461       .  S
C1742      C1978   1.495       .  S
Co1744     N2389   2.076   1_545  S
N1745      C1756   1.350       .  A
C1746      C2006   1.472       .  S
Co1748     N2397   2.069   1_545  S
Co1748     N2075   2.101   1_545  S
Co1748    Cl1755   2.456       .  S
N1751     Co2052   2.085       .  S
Cl1755    Co2054   2.453       .  S
C1756      C1950   1.486       .  S
C1759      C1894   1.626       .  S
C1759      C1908   1.582       .  S
C1759      C1922   1.604       .  S
C1759      C1936   1.560       .  S
C1760      C1866   1.615       .  S
C1760      C1880   1.587       .  S
C1760      C1925   1.614       .  S
C1760      C2020   1.559       .  S
C1761      C1838   1.586       .  S
C1761      C1852   1.620       .  S
C1761      C1869   1.588       .  S
C1761      C1953   1.564       .  S
C1762      C1827   1.601       .  S
C1762      C1841   1.602       .  S
C1762      C1897   1.595       .  S
C1762      C1981   1.574       .  S
C1763      C1796   1.611       .  S
C1763      C1810   1.634       .  S
C1763      C1911   1.590       .  S
C1763      C2009   1.584       .  S
C1764      C1782   1.614       .  S
C1764      C1799   1.604       .  S
C1764      C1824   1.594       .  S
C1764      C1967   1.576       .  S
C1765      C1768   1.623       .  S
C1765      C1785   1.633       .  S
C1765      C1855   1.634       .  S
C1765      C2037   1.577       .  S
C1766      C1771   1.597       .  S
C1766      C1813   1.608       .  S
C1766      C1883   1.588       .  S
C1766      C1995   1.565       .  S
C1767      H1774   1.063       .  S
C1767      C1768   1.423       .  A
C1767      C1772   1.411       .  A
C1768      C1769   1.440       .  A
C1769      C1770   1.420       .  A
C1769      N1776   1.443       .  S
C1770      H1775   1.082       .  S
C1770      C1771   1.422       .  A
C1771      C1772   1.409       .  A
C1772      N1773   1.433       .  S
N1773      O1777   1.263       .  A
N1773      O1778   1.262       .  A
N1776      O1780   1.259       .  A
N1776      O1779   1.262       .  A
C1781      H1788   1.066       .  S
C1781      C1782   1.416       .  A
C1781      C1786   1.418       .  A
C1782      C1783   1.441       .  A
C1783      C1784   1.418       .  A
C1783      N1790   1.435       .  S
C1784      H1789   1.073       .  S
C1784      C1785   1.421       .  A
C1785      C1786   1.424       .  A
C1786      N1787   1.439       .  S
N1787      O1791   1.263       .  A
N1787      O1792   1.263       .  A
N1790      O1794   1.261       .  A
N1790      O1793   1.262       .  A
C1795      H1802   1.079       .  S
C1795      C1796   1.413       .  A
C1795      C1800   1.436       .  A
C1796      C1797   1.417       .  A
C1797      C1798   1.408       .  A
C1797      N1804   1.435       .  S
C1798      H1803   1.079       .  S
C1798      C1799   1.422       .  A
C1799      C1800   1.442       .  A
C1800      N1801   1.435       .  S
N1801      O1805   1.261       .  A
N1801      O1806   1.261       .  A
N1804      O1808   1.264       .  A
N1804      O1807   1.263       .  A
C1809      H1816   1.083       .  S
C1809      C1810   1.428       .  A
C1809      C1814   1.433       .  A
C1810      C1811   1.433       .  A
C1811      C1812   1.407       .  A
C1811      N1818   1.434       .  S
C1812      H1817   1.063       .  S
C1812      C1813   1.409       .  A
C1813      C1814   1.437       .  A
C1814      N1815   1.435       .  S
N1815      O1819   1.259       .  A
N1815      O1820   1.261       .  A
N1818      O1822   1.261       .  A
N1818      O1821   1.262       .  A
C1823      H1830   1.072       .  S
C1823      C1824   1.422       .  A
C1823      C1828   1.441       .  A
C1824      C1825   1.400       .  A
C1825      C1826   1.374       .  A
C1825      N1832   1.399       .  S
C1826      H1831   1.061       .  S
C1826      C1827   1.397       .  A
C1827      C1828   1.445       .  A
C1828      N1829   1.429       .  S
N1829      O1833   1.262       .  A
N1829      O1834   1.262       .  A
N1832      O1836   1.258       .  A
N1832      O1835   1.252       .  A
C1837      H1844   1.082       .  S
C1837      C1838   1.392       .  A
C1837      C1842   1.372       .  A
C1838      C1839   1.433       .  A
C1839      C1840   1.438       .  A
C1839      N1846   1.427       .  S
C1840      H1845   1.079       .  S
C1840      C1841   1.424       .  A
C1841      C1842   1.423       .  A
C1842      N1843   1.411       .  S
N1843      O1847   1.258       .  A
N1843      O1848   1.252       .  A
N1846      O1850   1.262       .  A
N1846      O1849   1.262       .  A
C1851      H1858   1.082       .  S
C1851      C1852   1.421       .  A
C1851      C1856   1.455       .  A
C1852      C1853   1.404       .  A
C1853      C1854   1.393       .  A
C1853      N1860   1.438       .  S
C1854      H1859   1.057       .  S
C1854      C1855   1.417       .  A
C1855      C1856   1.465       .  A
C1856      N1857   1.441       .  S
N1857      O1861   1.263       .  A
N1857      O1862   1.255       .  A
N1860      O1864   1.258       .  A
N1860      O1863   1.262       .  A
C1865      H1872   1.080       .  S
C1865      C1866   1.421       .  A
C1865      C1870   1.392       .  A
C1866      C1867   1.428       .  A
C1867      C1868   1.422       .  A
C1867      N1874   1.441       .  S
C1868      H1873   1.083       .  S
C1868      C1869   1.428       .  A
C1869      C1870   1.402       .  A
C1870      N1871   1.414       .  S
N1871      O1875   1.262       .  A
N1871      O1876   1.255       .  A
N1874      O1878   1.264       .  A
N1874      O1877   1.260       .  A
C1879      H1886   1.079       .  S
C1879      C1880   1.398       .  A
C1879      C1884   1.383       .  A
C1880      C1881   1.425       .  A
C1881      C1882   1.427       .  A
C1881      N1888   1.430       .  S
C1882      H1887   1.080       .  S
C1882      C1883   1.429       .  A
C1883      C1884   1.427       .  A
C1884      N1885   1.440       .  S
N1885      O1889   1.257       .  A
N1885      O1890   1.260       .  A
N1888      O1892   1.262       .  A
N1888      O1891   1.262       .  A
C1893      H1900   1.077       .  S
C1893      C1894   1.417       .  A
C1893      C1898   1.430       .  A
C1894      C1895   1.430       .  A
C1895      C1896   1.403       .  A
C1895      N1902   1.430       .  S
C1896      H1901   1.074       .  S
C1896      C1897   1.409       .  A
C1897      C1898   1.438       .  A
C1898      N1899   1.433       .  S
N1899      O1903   1.262       .  A
N1899      O1904   1.262       .  A
N1902      O1906   1.257       .  A
N1902      O1905   1.262       .  A
C1907      H1914   1.068       .  S
C1907      C1908   1.391       .  A
C1907      C1912   1.382       .  A
C1908      C1909   1.432       .  A
C1909      C1910   1.439       .  A
C1909      N1916   1.429       .  S
C1910      H1915   1.079       .  S
C1910      C1911   1.423       .  A
C1911      C1912   1.406       .  A
C1912      N1913   1.412       .  S
N1913      O1917   1.252       .  A
N1913      O1918   1.258       .  A
N1916      O1920   1.261       .  A
N1916      O1919   1.261       .  A
C1921      H1928   1.069       .  S
C1921      C1922   1.409       .  A
C1921      C1926   1.421       .  A
C1922      C1923   1.431       .  A
C1923      C1924   1.402       .  A
C1923      N1930   1.431       .  S
C1924      H1929   1.079       .  S
C1924      C1925   1.421       .  A
C1925      C1926   1.429       .  A
C1926      N1927   1.424       .  S
N1927      O1931   1.263       .  A
N1927      O1932   1.262       .  A
N1930      O1934   1.261       .  A
N1930      O1933   1.258       .  A
C1935      H1942   1.071       .  S
C1935      C1936   1.413       .  A
C1935      C1940   1.396       .  A
C1936      C1937   1.441       .  A
C1937      C1938   1.402       .  A
C1937      N1944   1.429       .  S
C1938      H1943   1.085       .  S
C1938      C1939   1.388       .  A
C1939      C1940   1.397       .  A
C1940      N1941   1.429       .  S
N1941      O1945   1.262       .  A
N1941      O1946   1.262       .  A
N1944      O1948   1.261       .  A
N1944      O1947   1.262       .  A
C1949      H1956   1.084       .  S
C1949      C1950   1.389       .  A
C1949      C1954   1.396       .  A
C1950      C1951   1.407       .  A
C1951      C1952   1.407       .  A
C1951      N1958   1.424       .  S
C1952      H1957   1.082       .  S
C1952      C1953   1.413       .  A
C1953      C1954   1.443       .  A
C1954      N1955   1.429       .  S
N1955      O1959   1.261       .  A
N1955      O1960   1.263       .  A
N1958      O1962   1.261       .  A
N1958      O1961   1.262       .  A
C1963      H1970   1.084       .  S
C1963      C1964   1.394       .  A
C1963      C1968   1.408       .  A
C1964      C1965   1.396       .  A
C1965      C1966   1.400       .  A
C1965      N1972   1.429       .  S
C1966      H1971   1.077       .  S
C1966      C1967   1.424       .  A
C1967      C1968   1.438       .  A
C1968      N1969   1.429       .  S
N1969      O1973   1.262       .  A
N1969      O1974   1.260       .  A
N1972      O1976   1.262       .  A
N1972      O1975   1.262       .  A
C1977      H1984   1.084       .  S
C1977      C1978   1.402       .  A
C1977      C1982   1.415       .  A
C1978      C1979   1.408       .  A
C1979      C1980   1.398       .  A
C1979      N1986   1.430       .  S
C1980      H1985   1.077       .  S
C1980      C1981   1.417       .  A
C1981      C1982   1.436       .  A
C1982      N1983   1.433       .  S
N1983      O1987   1.262       .  A
N1983      O1988   1.262       .  A
N1986      O1990   1.262       .  A
N1986      O1989   1.262       .  A
C1991      H1998   1.084       .  S
C1991      C1992   1.394       .  A
C1991      C1996   1.406       .  A
C1992      C1993   1.402       .  A
C1993      C1994   1.398       .  A
C1993      N2000   1.429       .  S
C1994      H1999   1.081       .  S
C1994      C1995   1.416       .  A
C1995      C1996   1.442       .  A
C1996      N1997   1.434       .  S
N1997      O2001   1.261       .  A
N1997      O2002   1.262       .  A
N2000      O2004   1.262       .  A
N2000      O2003   1.262       .  A
C2005      H2012   1.085       .  S
C2005      C2006   1.389       .  A
C2005      C2010   1.405       .  A
C2006      C2007   1.392       .  A
C2007      C2008   1.399       .  A
C2007      N2014   1.429       .  S
C2008      H2013   1.068       .  S
C2008      C2009   1.421       .  A
C2009      C2010   1.458       .  A
C2010      N2011   1.440       .  S
N2011      O2015   1.260       .  A
N2011      O2016   1.261       .  A
N2014      O2018   1.261       .  A
N2014      O2017   1.262       .  A
C2019      H2026   1.080       .  S
C2019      C2020   1.420       .  A
C2019      C2024   1.403       .  A
C2020      C2021   1.435       .  A
C2021      C2022   1.397       .  A
C2021      N2028   1.427       .  S
C2022      H2027   1.085       .  S
C2022      C2023   1.389       .  A
C2023      C2024   1.401       .  A
C2024      N2025   1.429       .  S
N2025      O2029   1.262       .  A
N2025      O2030   1.262       .  A
N2028      O2032   1.261       .  A
N2028      O2031   1.263       .  A
C2033      H2040   1.083       .  S
C2033      C2034   1.398       .  A
C2033      C2038   1.410       .  A
C2034      C2035   1.403       .  A
C2035      C2036   1.391       .  A
C2035      N2042   1.431       .  S
C2036      H2041   1.069       .  S
C2036      C2037   1.421       .  A
C2037      C2038   1.433       .  A
C2038      N2039   1.424       .  S
N2039      O2043   1.261       .  A
N2039      O2044   1.263       .  A
N2042      O2046   1.262       .  A
N2042      O2045   1.262       .  A
C2047      N2065   1.349       .  A
C2047      C2084   1.465       .  S
C2047      C2375   1.486       .  S
N2048      N2065   1.322       .  A
N2048      N2070   1.320       .  A
C2049      N2074   1.342       .  A
C2049      C2087   1.461       .  S
C2049      H2094   1.081       .  S
H2050      C2091   1.082       .  S
C2051      N2075   1.343       .  A
C2051      C2055   1.459       .  S
C2051      H2080   1.081       .  S
Co2052     N2411   2.086   1_545  S
Co2052     N2060   2.087   1_545  S
N2053      C2091   1.344       .  A
N2053      N2060   1.319       .  A
Co2054     N2057   2.100   1_545  S
C2055      N2093   1.354       .  A
C2055      C2364   1.478       .  S
N2056      N2063   1.320       .  A
N2056      N2086   1.325       .  A
N2057      N2075   1.322       .  A
N2057      N2093   1.327       .  A
N2058      C2087   1.351       .  A
N2058      N2068   1.323       .  A
H2059      C2084   1.081       .  S
N2060      N2081   1.326       .  A
N2061      N2079   1.322       .  A
N2061      N2066   1.324       .  A
C2062      N2066   1.346       .  A
C2062      C2090   1.455       .  S
C2062      C2280   1.464       .  S
N2063      C2078   1.339       .  A
C2064      N2092   1.343       .  A
C2064      C2067   1.457       .  S
C2064      H2098   1.081       .  S
C2067      N2088   1.354       .  A
C2067      C2305   1.479       .  S
N2068      N2074   1.321       .  A
N2069      C2095   1.339       .  A
N2069      N2071   1.319       .  A
N2070      C2084   1.345       .  A
N2070     Co2393   2.090   1_564  S
N2071      N2099   1.330       .  A
N2071     Co2089   2.101       .  S
H2072      C2095   1.081       .  S
H2073      C2090   1.081       .  S
N2076      N2088   1.328       .  A
N2076      N2092   1.320       .  A
N2076     Co2085   2.100       .  S
C2077      N2081   1.350       .  A
C2077      C2091   1.461       .  S
C2077      C2333   1.480       .  S
C2078      C2097   1.467       .  S
C2078      H2082   1.082       .  S
N2079      C2090   1.340       .  A
N2079     Co2430   2.079       .  S
C2083      N2099   1.356       .  A
C2083      C2095   1.464       .  S
C2083      C2319   1.491       .  S
N2086      C2097   1.348       .  A
C2087      C2347   1.475       .  S
Co2089     N2420   2.068   1_554  S
Co2089    Cl2096   2.458   1_554  S
C2097      C2291   1.476       .  S
C2100      C2235   1.623       .  S
C2100      C2249   1.581       .  S
C2100      C2263   1.609       .  S
C2100      C2277   1.563       .  S
C2101      C2207   1.620       .  S
C2101      C2221   1.591       .  S
C2101      C2266   1.622       .  S
C2101      C2361   1.567       .  S
C2102      C2179   1.591       .  S
C2102      C2193   1.619       .  S
C2102      C2210   1.589       .  S
C2102      C2294   1.555       .  S
C2103      C2168   1.606       .  S
C2103      C2182   1.604       .  S
C2103      C2238   1.601       .  S
C2103      C2322   1.575       .  S
C2104      C2137   1.613       .  S
C2104      C2151   1.639       .  S
C2104      C2252   1.596       .  S
C2104      C2350   1.585       .  S
C2105      C2123   1.615       .  S
C2105      C2140   1.608       .  S
C2105      C2165   1.596       .  S
C2105      C2308   1.575       .  S
C2106      C2109   1.621       .  S
C2106      C2126   1.631       .  S
C2106      C2196   1.625       .  S
C2106      C2378   1.582       .  S
C2107      C2112   1.599       .  S
C2107      C2154   1.611       .  S
C2107      C2224   1.592       .  S
C2107      C2336   1.566       .  S
C2108      H2115   1.064       .  S
C2108      C2109   1.421       .  A
C2108      C2113   1.413       .  A
C2109      C2110   1.441       .  A
C2110      C2111   1.421       .  A
C2110      N2117   1.445       .  S
C2111      H2116   1.082       .  S
C2111      C2112   1.419       .  A
C2112      C2113   1.411       .  A
C2113      N2114   1.433       .  S
N2114      O2118   1.263       .  A
N2114      O2119   1.262       .  A
N2117      O2121   1.258       .  A
N2117      O2120   1.263       .  A
C2122      H2129   1.064       .  S
C2122      C2123   1.417       .  A
C2122      C2127   1.420       .  A
C2123      C2124   1.439       .  A
C2124      C2125   1.415       .  A
C2124      N2131   1.436       .  S
C2125      H2130   1.076       .  S
C2125      C2126   1.422       .  A
C2126      C2127   1.423       .  A
C2127      N2128   1.438       .  S
N2128      O2132   1.263       .  A
N2128      O2133   1.263       .  A
N2131      O2135   1.261       .  A
N2131      O2134   1.262       .  A
C2136      H2143   1.079       .  S
C2136      C2137   1.413       .  A
C2136      C2141   1.438       .  A
C2137      C2138   1.418       .  A
C2138      C2139   1.411       .  A
C2138      N2145   1.436       .  S
C2139      H2144   1.080       .  S
C2139      C2140   1.422       .  A
C2140      C2141   1.443       .  A
C2141      N2142   1.436       .  S
N2142      O2146   1.261       .  A
N2142      O2147   1.261       .  A
N2145      O2149   1.264       .  A
N2145      O2148   1.263       .  A
C2150      H2157   1.081       .  S
C2150      C2151   1.428       .  A
C2150      C2155   1.435       .  A
C2151      C2152   1.436       .  A
C2152      C2153   1.409       .  A
C2152      N2159   1.433       .  S
C2153      H2158   1.050       .  S
C2153      C2154   1.409       .  A
C2154      C2155   1.437       .  A
C2155      N2156   1.436       .  S
N2156      O2160   1.259       .  A
N2156      O2161   1.261       .  A
N2159      O2163   1.261       .  A
N2159      O2162   1.262       .  A
C2164      H2171   1.074       .  S
C2164      C2165   1.423       .  A
C2164      C2169   1.444       .  A
C2165      C2166   1.396       .  A
C2166      C2167   1.373       .  A
C2166      N2173   1.397       .  S
C2167      H2172   1.060       .  S
C2167      C2168   1.396       .  A
C2168      C2169   1.448       .  A
C2169      N2170   1.428       .  S
N2170      O2174   1.262       .  A
N2170      O2175   1.262       .  A
N2173      O2177   1.257       .  A
N2173      O2176   1.252       .  A
C2178      H2185   1.081       .  S
C2178      C2179   1.393       .  A
C2178      C2183   1.373       .  A
C2179      C2180   1.436       .  A
C2180      C2181   1.438       .  A
C2180      N2187   1.427       .  S
C2181      H2186   1.079       .  S
C2181      C2182   1.424       .  A
C2182      C2183   1.421       .  A
C2183      N2184   1.409       .  S
N2184      O2188   1.258       .  A
N2184      O2189   1.253       .  A
N2187      O2191   1.262       .  A
N2187      O2190   1.262       .  A
C2192      H2199   1.082       .  S
C2192      C2193   1.433       .  A
C2192      C2197   1.457       .  A
C2193      C2194   1.401       .  A
C2194      C2195   1.392       .  A
C2194      N2201   1.437       .  S
C2195      H2200   1.057       .  S
C2195      C2196   1.414       .  A
C2196      C2197   1.450       .  A
C2197      N2198   1.429       .  S
N2198      O2202   1.262       .  A
N2198      O2203   1.259       .  A
N2201      O2205   1.259       .  A
N2201      O2204   1.262       .  A
C2206      H2213   1.080       .  S
C2206      C2207   1.421       .  A
C2206      C2211   1.389       .  A
C2207      C2208   1.432       .  A
C2208      C2209   1.428       .  A
C2208      N2215   1.440       .  S
C2209      H2214   1.083       .  S
C2209      C2210   1.428       .  A
C2210      C2211   1.398       .  A
C2211      N2212   1.408       .  S
N2212      O2216   1.262       .  A
N2212      O2217   1.253       .  A
N2215      O2219   1.263       .  A
N2215      O2218   1.260       .  A
C2220      H2227   1.080       .  S
C2220      C2221   1.399       .  A
C2220      C2225   1.389       .  A
C2221      C2222   1.424       .  A
C2222      C2223   1.428       .  A
C2222      N2229   1.431       .  S
C2223      H2228   1.079       .  S
C2223      C2224   1.430       .  A
C2224      C2225   1.427       .  A
C2225      N2226   1.442       .  S
N2226      O2230   1.258       .  A
N2226      O2231   1.259       .  A
N2229      O2233   1.262       .  A
N2229      O2232   1.262       .  A
C2234      H2241   1.077       .  S
C2234      C2235   1.413       .  A
C2234      C2239   1.436       .  A
C2235      C2236   1.427       .  A
C2236      C2237   1.399       .  A
C2236      N2243   1.430       .  S
C2237      H2242   1.074       .  S
C2237      C2238   1.410       .  A
C2238      C2239   1.452       .  A
C2239      N2240   1.445       .  S
N2240      O2244   1.263       .  A
N2240      O2245   1.259       .  A
N2243      O2247   1.255       .  A
N2243      O2246   1.262       .  A
C2248      H2255   1.067       .  S
C2248      C2249   1.389       .  A
C2248      C2253   1.386       .  A
C2249      C2250   1.429       .  A
C2250      C2251   1.441       .  A
C2250      N2257   1.428       .  S
C2251      H2256   1.078       .  S
C2251      C2252   1.425       .  A
C2252      C2253   1.405       .  A
C2253      N2254   1.410       .  S
N2254      O2258   1.250       .  A
N2254      O2259   1.258       .  A
N2257      O2261   1.261       .  A
N2257      O2260   1.262       .  A
C2262      H2269   1.070       .  S
C2262      C2263   1.412       .  A
C2262      C2267   1.426       .  A
C2263      C2264   1.433       .  A
C2264      C2265   1.405       .  A
C2264      N2271   1.432       .  S
C2265      H2270   1.079       .  S
C2265      C2266   1.422       .  A
C2266      C2267   1.430       .  A
C2267      N2268   1.425       .  S
N2268      O2272   1.263       .  A
N2268      O2273   1.262       .  A
N2271      O2275   1.260       .  A
N2271      O2274   1.258       .  A
C2276      H2283   1.068       .  S
C2276      C2277   1.415       .  A
C2276      C2281   1.396       .  A
C2277      C2278   1.440       .  A
C2278      C2279   1.403       .  A
C2278      N2285   1.428       .  S
C2279      H2284   1.085       .  S
C2279      C2280   1.388       .  A
C2280      C2281   1.396       .  A
C2281      N2282   1.430       .  S
N2282      O2286   1.262       .  A
N2282      O2287   1.262       .  A
N2285      O2289   1.261       .  A
N2285      O2288   1.262       .  A
C2290      H2297   1.084       .  S
C2290      C2291   1.388       .  A
C2290      C2295   1.393       .  A
C2291      C2292   1.405       .  A
C2292      C2293   1.404       .  A
C2292      N2299   1.424       .  S
C2293      H2298   1.083       .  S
C2293      C2294   1.411       .  A
C2294      C2295   1.440       .  A
C2295      N2296   1.430       .  S
N2296      O2300   1.261       .  A
N2296      O2301   1.263       .  A
N2299      O2303   1.261       .  A
N2299      O2302   1.261       .  A
C2304      H2311   1.084       .  S
C2304      C2305   1.396       .  A
C2304      C2309   1.410       .  A
C2305      C2306   1.396       .  A
C2306      C2307   1.400       .  A
C2306      N2313   1.429       .  S
C2307      H2312   1.077       .  S
C2307      C2308   1.425       .  A
C2308      C2309   1.436       .  A
C2309      N2310   1.429       .  S
N2310      O2314   1.261       .  A
N2310      O2315   1.260       .  A
N2313      O2317   1.261       .  A
N2313      O2316   1.262       .  A
C2318      H2325   1.084       .  S
C2318      C2319   1.402       .  A
C2318      C2323   1.415       .  A
C2319      C2320   1.405       .  A
C2320      C2321   1.396       .  A
C2320      N2327   1.430       .  S
C2321      H2326   1.076       .  S
C2321      C2322   1.418       .  A
C2322      C2323   1.436       .  A
C2323      N2324   1.434       .  S
N2324      O2328   1.261       .  A
N2324      O2329   1.262       .  A
N2327      O2331   1.262       .  A
N2327      O2330   1.262       .  A
C2332      H2339   1.084       .  S
C2332      C2333   1.396       .  A
C2332      C2337   1.407       .  A
C2333      C2334   1.403       .  A
C2334      C2335   1.400       .  A
C2334      N2341   1.429       .  S
C2335      H2340   1.081       .  S
C2335      C2336   1.416       .  A
C2336      C2337   1.440       .  A
C2337      N2338   1.433       .  S
N2338      O2342   1.261       .  A
N2338      O2343   1.262       .  A
N2341      O2345   1.262       .  A
N2341      O2344   1.262       .  A
C2346      H2353   1.085       .  S
C2346      C2347   1.390       .  A
C2346      C2351   1.406       .  A
C2347      C2348   1.394       .  A
C2348      C2349   1.399       .  A
C2348      N2355   1.430       .  S
C2349      H2354   1.065       .  S
C2349      C2350   1.420       .  A
C2350      C2351   1.456       .  A
C2351      N2352   1.438       .  S
N2352      O2356   1.260       .  A
N2352      O2357   1.261       .  A
N2355      O2359   1.261       .  A
N2355      O2358   1.262       .  A
C2360      H2367   1.080       .  S
C2360      C2361   1.419       .  A
C2360      C2365   1.408       .  A
C2361      C2362   1.438       .  A
C2362      C2363   1.400       .  A
C2362      N2369   1.428       .  S
C2363      H2368   1.085       .  S
C2363      C2364   1.389       .  A
C2364      C2365   1.404       .  A
C2365      N2366   1.428       .  S
N2366      O2370   1.262       .  A
N2366      O2371   1.262       .  A
N2369      O2373   1.261       .  A
N2369      O2372   1.263       .  A
C2374      H2381   1.084       .  S
C2374      C2375   1.398       .  A
C2374      C2379   1.410       .  A
C2375      C2376   1.402       .  A
C2376      C2377   1.393       .  A
C2376      N2383   1.431       .  S
C2377      H2382   1.071       .  S
C2377      C2378   1.421       .  A
C2378      C2379   1.432       .  A
C2379      N2380   1.424       .  S
N2380      O2384   1.261       .  A
N2380      O2385   1.263       .  A
N2383      O2387   1.262       .  A
N2383      O2386   1.262       .  A
C2388      N2406   1.347       .  A
C2388      C2425   1.462       .  S
C2388      C2716   1.475       .  S
N2389      N2406   1.321       .  A
N2389      N2411   1.320       .  A
C2390      N2415   1.345       .  A
C2390      C2428   1.462       .  S
C2390      H2435   1.081       .  S
H2391      C2432   1.082       .  S
C2392      N2416   1.348       .  A
C2392      C2396   1.468       .  S
C2392      H2421   1.081       .  S
Co2393     N2401   2.091   1_545  S
N2394      C2432   1.344       .  A
N2394      N2401   1.321       .  A
Co2395     N2398   2.087       .  S
C2396      N2434   1.352       .  A
C2396      C2705   1.488       .  S
N2397      N2404   1.317       .  A
N2397      N2427   1.324       .  A
N2398      N2416   1.320       .  A
N2398      N2434   1.321       .  A
N2399      C2428   1.349       .  A
N2399      N2409   1.322       .  A
H2400      C2425   1.082       .  S
N2401      N2422   1.328       .  A
N2402      N2420   1.320       .  A
N2402      N2407   1.324       .  A
C2403      N2407   1.350       .  A
C2403      C2431   1.453       .  S
C2403      C2621   1.466       .  S
N2404      C2419   1.341       .  A
C2405      N2433   1.341       .  A
C2405      C2408   1.457       .  S
C2405      H2439   1.081       .  S
C2408      N2429   1.349       .  A
C2408      C2646   1.468       .  S
N2409      N2415   1.320       .  A
N2410      C2436   1.340       .  A
N2410      N2412   1.320       .  A
N2411      C2425   1.342       .  A
N2412      N2440   1.332       .  A
N2412     Co2430   2.114       .  S
H2413      C2436   1.080       .  S
H2414      C2431   1.082       .  S
N2417      N2429   1.324       .  A
N2417      N2433   1.320       .  A
N2417     Co2426   2.081       .  S
C2418      N2422   1.351       .  A
C2418      C2432   1.460       .  S
C2418      C2674   1.483       .  S
C2419      C2438   1.470       .  S
C2419      H2423   1.080       .  S
N2420      C2431   1.338       .  A
C2424      N2440   1.359       .  A
C2424      C2436   1.463       .  S
C2424      C2660   1.497       .  S
N2427      C2438   1.348       .  A
C2428      C2688   1.472       .  S
Co2430    Cl2437   2.463       .  S
C2438      C2632   1.490       .  S
C2441      C2576   1.617       .  S
C2441      C2590   1.574       .  S
C2441      C2604   1.609       .  S
C2441      C2618   1.566       .  S
C2442      C2548   1.605       .  S
C2442      C2562   1.599       .  S
C2442      C2607   1.629       .  S
C2442      C2702   1.566       .  S
C2443      C2520   1.585       .  S
C2443      C2534   1.624       .  S
C2443      C2551   1.608       .  S
C2443      C2635   1.570       .  S
C2444      C2509   1.603       .  S
C2444      C2523   1.597       .  S
C2444      C2579   1.586       .  S
C2444      C2663   1.575       .  S
C2445      C2478   1.607       .  S
C2445      C2492   1.632       .  S
C2445      C2593   1.585       .  S
C2445      C2691   1.582       .  S
C2446      C2464   1.603       .  S
C2446      C2481   1.592       .  S
C2446      C2506   1.597       .  S
C2446      C2649   1.571       .  S
C2447      C2450   1.617       .  S
C2447      C2467   1.632       .  S
C2447      C2537   1.607       .  S
C2447      C2719   1.577       .  S
C2448      C2453   1.594       .  S
C2448      C2495   1.602       .  S
C2448      C2565   1.607       .  S
C2448      C2677   1.575       .  S
C2449      H2456   1.071       .  S
C2449      C2450   1.427       .  A
C2449      C2454   1.418       .  A
C2450      C2451   1.442       .  A
C2451      C2452   1.406       .  A
C2451      N2458   1.416       .  S
C2452      H2457   1.083       .  S
C2452      C2453   1.405       .  A
C2453      C2454   1.409       .  A
C2454      N2455   1.432       .  S
N2455      O2459   1.262       .  A
N2455      O2460   1.262       .  A
N2458      O2462   1.262       .  A
N2458      O2461   1.258       .  A
C2463      H2470   1.070       .  S
C2463      C2464   1.417       .  A
C2463      C2468   1.414       .  A
C2464      C2465   1.435       .  A
C2465      C2466   1.415       .  A
C2465      N2472   1.435       .  S
C2466      H2471   1.073       .  S
C2466      C2467   1.425       .  A
C2467      C2468   1.422       .  A
C2468      N2469   1.438       .  S
N2469      O2473   1.262       .  A
N2469      O2474   1.264       .  A
N2472      O2476   1.262       .  A
N2472      O2475   1.261       .  A
C2477      H2484   1.078       .  S
C2477      C2478   1.412       .  A
C2477      C2482   1.432       .  A
C2478      C2479   1.418       .  A
C2479      C2480   1.403       .  A
C2479      N2486   1.434       .  S
C2480      H2485   1.079       .  S
C2480      C2481   1.418       .  A
C2481      C2482   1.439       .  A
C2482      N2483   1.433       .  S
N2483      O2487   1.261       .  A
N2483      O2488   1.262       .  A
N2486      O2490   1.264       .  A
N2486      O2489   1.263       .  A
C2491      H2498   1.081       .  S
C2491      C2492   1.424       .  A
C2491      C2496   1.430       .  A
C2492      C2493   1.433       .  A
C2493      C2494   1.413       .  A
C2493      N2500   1.434       .  S
C2494      H2499   1.062       .  S
C2494      C2495   1.411       .  A
C2495      C2496   1.435       .  A
C2496      N2497   1.435       .  S
N2497      O2501   1.260       .  A
N2497      O2502   1.261       .  A
N2500      O2504   1.261       .  A
N2500      O2503   1.262       .  A
C2505      H2512   1.071       .  S
C2505      C2506   1.424       .  A
C2505      C2510   1.441       .  A
C2506      C2507   1.400       .  A
C2507      C2508   1.377       .  A
C2507      N2514   1.400       .  S
C2508      H2513   1.060       .  S
C2508      C2509   1.396       .  A
C2509      C2510   1.445       .  A
C2510      N2511   1.430       .  S
N2511      O2515   1.261       .  A
N2511      O2516   1.262       .  A
N2514      O2518   1.257       .  A
N2514      O2517   1.251       .  A
C2519      H2526   1.084       .  S
C2519      C2520   1.399       .  A
C2519      C2524   1.368       .  A
C2520      C2521   1.430       .  A
C2521      C2522   1.434       .  A
C2521      N2528   1.431       .  S
C2522      H2527   1.078       .  S
C2522      C2523   1.426       .  A
C2523      C2524   1.428       .  A
C2524      N2525   1.424       .  S
N2525      O2529   1.258       .  A
N2525      O2530   1.258       .  A
N2528      O2532   1.261       .  A
N2528      O2531   1.261       .  A
C2533      H2540   1.078       .  S
C2533      C2534   1.428       .  A
C2533      C2538   1.446       .  A
C2534      C2535   1.411       .  A
C2535      C2536   1.388       .  A
C2535      N2542   1.441       .  S
C2536      H2541   1.061       .  S
C2536      C2537   1.411       .  A
C2537      C2538   1.446       .  A
C2538      N2539   1.432       .  S
N2539      O2543   1.262       .  A
N2539      O2544   1.259       .  A
N2542      O2546   1.260       .  A
N2542      O2545   1.260       .  A
C2547      H2554   1.082       .  S
C2547      C2548   1.436       .  A
C2547      C2552   1.425       .  A
C2548      C2549   1.416       .  A
C2549      C2550   1.400       .  A
C2549      N2556   1.426       .  S
C2550      H2555   1.080       .  S
C2550      C2551   1.425       .  A
C2551      C2552   1.412       .  A
C2552      N2553   1.440       .  S
N2553      O2557   1.263       .  A
N2553      O2558   1.263       .  A
N2556      O2560   1.264       .  A
N2556      O2559   1.262       .  A
C2561      H2568   1.080       .  S
C2561      C2562   1.397       .  A
C2561      C2566   1.392       .  A
C2562      C2563   1.431       .  A
C2563      C2564   1.429       .  A
C2563      N2570   1.428       .  S
C2564      H2569   1.078       .  S
C2564      C2565   1.425       .  A
C2565      C2566   1.441       .  A
C2566      N2567   1.445       .  S
N2567      O2571   1.256       .  A
N2567      O2572   1.262       .  A
N2570      O2574   1.262       .  A
N2570      O2573   1.263       .  A
C2575      H2582   1.075       .  S
C2575      C2576   1.414       .  A
C2575      C2580   1.425       .  A
C2576      C2577   1.435       .  A
C2577      C2578   1.397       .  A
C2577      N2584   1.436       .  S
C2578      H2583   1.072       .  S
C2578      C2579   1.406       .  A
C2579      C2580   1.437       .  A
C2580      N2581   1.433       .  S
N2581      O2585   1.262       .  A
N2581      O2586   1.262       .  A
N2584      O2588   1.257       .  A
N2584      O2587   1.263       .  A
C2589      H2596   1.071       .  S
C2589      C2590   1.395       .  A
C2589      C2594   1.378       .  A
C2590      C2591   1.427       .  A
C2591      C2592   1.438       .  A
C2591      N2598   1.427       .  S
C2592      H2597   1.079       .  S
C2592      C2593   1.422       .  A
C2593      C2594   1.404       .  A
C2594      N2595   1.410       .  S
N2595      O2599   1.253       .  A
N2595      O2600   1.259       .  A
N2598      O2602   1.262       .  A
N2598      O2601   1.262       .  A
C2603      H2610   1.076       .  S
C2603      C2604   1.416       .  A
C2603      C2608   1.434       .  A
C2604      C2605   1.434       .  A
C2605      C2606   1.397       .  A
C2605      N2612   1.431       .  S
C2606      H2611   1.079       .  S
C2606      C2607   1.415       .  A
C2607      C2608   1.440       .  A
C2608      N2609   1.440       .  S
N2609      O2613   1.263       .  A
N2609      O2614   1.260       .  A
N2612      O2616   1.260       .  A
N2612      O2615   1.257       .  A
C2617      H2624   1.067       .  S
C2617      C2618   1.418       .  A
C2617      C2622   1.392       .  A
C2618      C2619   1.436       .  A
C2619      C2620   1.405       .  A
C2619      N2626   1.427       .  S
C2620      H2625   1.085       .  S
C2620      C2621   1.392       .  A
C2621      C2622   1.395       .  A
C2622      N2623   1.430       .  S
N2623      O2627   1.262       .  A
N2623      O2628   1.262       .  A
N2626      O2630   1.262       .  A
N2626      O2629   1.262       .  A
C2631      H2638   1.082       .  S
C2631      C2632   1.393       .  A
C2631      C2636   1.399       .  A
C2632      C2633   1.409       .  A
C2633      C2634   1.403       .  A
C2633      N2640   1.429       .  S
C2634      H2639   1.078       .  S
C2634      C2635   1.418       .  A
C2635      C2636   1.437       .  A
C2636      N2637   1.426       .  S
N2637      O2641   1.263       .  A
N2637      O2642   1.261       .  A
N2640      O2644   1.262       .  A
N2640      O2643   1.262       .  A
C2645      H2652   1.084       .  S
C2645      C2646   1.394       .  A
C2645      C2650   1.405       .  A
C2646      C2647   1.394       .  A
C2647      C2648   1.396       .  A
C2647      N2654   1.429       .  S
C2648      H2653   1.078       .  S
C2648      C2649   1.425       .  A
C2649      C2650   1.434       .  A
C2650      N2651   1.430       .  S
N2651      O2655   1.262       .  A
N2651      O2656   1.260       .  A
N2654      O2658   1.262       .  A
N2654      O2657   1.262       .  A
C2659      H2666   1.084       .  S
C2659      C2660   1.403       .  A
C2659      C2664   1.415       .  A
C2660      C2661   1.409       .  A
C2661      C2662   1.400       .  A
C2661      N2668   1.430       .  S
C2662      H2667   1.077       .  S
C2662      C2663   1.417       .  A
C2663      C2664   1.436       .  A
C2664      N2665   1.434       .  S
N2665      O2669   1.262       .  A
N2665      O2670   1.262       .  A
N2668      O2672   1.262       .  A
N2668      O2671   1.262       .  A
C2673      H2680   1.085       .  S
C2673      C2674   1.392       .  A
C2673      C2678   1.405       .  A
C2674      C2675   1.404       .  A
C2675      C2676   1.406       .  A
C2675      N2682   1.429       .  S
C2676      H2681   1.081       .  S
C2676      C2677   1.418       .  A
C2677      C2678   1.444       .  A
C2678      N2679   1.432       .  S
N2679      O2683   1.261       .  A
N2679      O2684   1.262       .  A
N2682      O2686   1.262       .  A
N2682      O2685   1.262       .  A
C2687      H2694   1.085       .  S
C2687      C2688   1.387       .  A
C2687      C2692   1.402       .  A
C2688      C2689   1.395       .  A
C2689      C2690   1.401       .  A
C2689      N2696   1.429       .  S
C2690      H2695   1.074       .  S
C2690      C2691   1.423       .  A
C2691      C2692   1.458       .  A
C2692      N2693   1.441       .  S
N2693      O2697   1.260       .  A
N2693      O2698   1.262       .  A
N2696      O2700   1.262       .  A
N2696      O2699   1.262       .  A
C2701      H2708   1.082       .  S
C2701      C2702   1.416       .  A
C2701      C2706   1.407       .  A
C2702      C2703   1.437       .  A
C2703      C2704   1.396       .  A
C2703      N2710   1.429       .  S
C2704      H2709   1.084       .  S
C2704      C2705   1.394       .  A
C2705      C2706   1.406       .  A
C2706      N2707   1.424       .  S
N2707      O2711   1.261       .  A
N2707      O2712   1.261       .  A
N2710      O2714   1.262       .  A
N2710      O2713   1.262       .  A
C2715      H2722   1.084       .  S
C2715      C2716   1.393       .  A
C2715      C2720   1.404       .  A
C2716      C2717   1.400       .  A
C2717      C2718   1.392       .  A
C2717      N2724   1.430       .  S
C2718      H2723   1.076       .  S
C2718      C2719   1.425       .  A
C2719      C2720   1.435       .  A
C2720      N2721   1.423       .  S
N2721      O2725   1.262       .  A
N2721      O2726   1.263       .  A
N2724      O2728   1.262       .  A
N2724      O2727   1.262       .  A
