geometry optimzed in LAMMPS
_audit_creation_date              2020-12-01 
_audit_creation_method            'lammps2cif' 
_symmetry_space_group_name_H-M    'P1' 
_symmetry_Int_Tables_number       1 
_symmetry_cell_setting            triclinic 
loop_ 
_symmetry_equiv_pos_as_xyz 
  x,y,z 
_cell_length_a                    50.1733113 
_cell_length_b                    50.15671881726899 
_cell_length_c                    50.434376747027095 
_cell_angle_alpha                 89.90074212480278 
_cell_angle_beta                  89.31766043267046 
_cell_angle_gamma                 90.1306093145938 
loop_ 
_atom_site_label 
_atom_site_type_symbol 
_atom_site_fract_x 
_atom_site_fract_y 
_atom_site_fract_z 
_atom_site_charge 
C1          C  0.37836679  0.59956306  0.64662710     0.86900
C2          C  0.39976108  0.61781450  0.65854651    -0.53400
C3          C  0.41140909  0.63517284  0.64102882     0.09800
C4          C  0.40141906  0.63165212  0.61238149     0.20700
C5          C  0.35914647  0.61861578  0.63298005    -0.54100
C6          C  0.37083623  0.63582952  0.61541071     0.09900
C7          C  0.39261908  0.58488859  0.62412402    -0.53600
C8          C  0.40512654  0.60137347  0.60613780     0.10500
H9          H  0.40368444  0.61861444  0.67965792     0.15000
H10         H  0.41121225  0.64510158  0.59774520     0.00700
H11         H  0.33808277  0.61946964  0.63817483     0.15300
H12         H  0.39292130  0.56328752  0.62262808     0.15100
N13         N  0.44742486  0.48210289  0.55528328    -0.05700
N14         N  0.44218955  0.46470550  0.57435991    -0.57900
N15         N  0.42856343  0.49822999  0.49261771    -0.05400
N16         N  0.41071635  0.49240203  0.47437825    -0.60000
N17         N  0.44664672  0.47932179  0.49374946    -0.05000
N18         N  0.44158638  0.46046069  0.47623420    -0.57800
N19         N  0.42839122  0.50007696  0.55409822    -0.04700
N20         N  0.40976150  0.49483817  0.57224013    -0.60300
C21         C  0.41897429  0.47310949  0.58538088     0.96400
C22         C  0.41934756  0.46896283  0.46396175     0.96200
N23         N  0.44732420  0.58162919  0.49050087    -0.05900
N24         N  0.44118572  0.60002498  0.47253879    -0.58400
N25         N  0.42912060  0.56297226  0.55197649    -0.04000
N26         N  0.41138949  0.56701864  0.57105159    -0.59700
N27         N  0.44741317  0.58185118  0.55194126    -0.05900
N28         N  0.44202171  0.59945985  0.57095130    -0.58700
N29         N  0.42933850  0.56240132  0.49063143    -0.03700
N30         N  0.41104710  0.56716062  0.47258339    -0.59800
Mn31       Mn  0.42830755  0.53091537  0.52212144     1.18400
C32         C  0.41857415  0.59053996  0.46127135     0.98500
C33         C  0.41941861  0.58983672  0.58272693     0.99200
N34         N  0.50886164  0.47747659  0.49201516    -0.06000
N35         N  0.51243012  0.45856656  0.47410739    -0.62300
N36         N  0.53054624  0.49568048  0.55178928    -0.04800
N37         N  0.55072157  0.48759054  0.56661511    -0.62900
N38         N  0.51110211  0.47802365  0.55309987    -0.05500
N39         N  0.51783153  0.45781061  0.56866764    -0.62500
N40         N  0.52821241  0.49520391  0.49060871    -0.04400
N41         N  0.54557991  0.48837504  0.47189008    -0.63200
Mn42       Mn  0.47832747  0.47899130  0.52375815     1.10700
C43         C  0.53517835  0.46577346  0.46133846     0.99700
C44         C  0.54235159  0.46424000  0.57774136     0.99800
N45         N  0.51191237  0.57912877  0.55076501    -0.05500
N46         N  0.51731125  0.59612393  0.57006210    -0.60900
N47         N  0.52938615  0.56009286  0.48917521    -0.04800
N48         N  0.54716133  0.56477057  0.47005922    -0.57600
N49         N  0.51149015  0.57938732  0.48972532    -0.06100
N50         N  0.51695290  0.59742770  0.47120068    -0.60400
N51         N  0.52968379  0.55974370  0.55033834    -0.05100
N52         N  0.54710427  0.56299981  0.56940526    -0.57600
Mn53       Mn  0.47971419  0.58135141  0.52078445     1.20200
Mn54       Mn  0.53015135  0.52790462  0.52034344     1.10100
Cl55       Cl  0.47920330  0.52988953  0.52168575    -0.85600
C56         C  0.53914107  0.58558981  0.58163323     0.96800
C57         C  0.53919000  0.58809319  0.45900205     0.96600
C58         C  0.59711156  0.41149824  0.58714942     0.86900
C59         C  0.61226762  0.43036036  0.60530873    -0.53400
C60         C  0.59654835  0.44436009  0.62257635     0.09800
C61         C  0.56642360  0.43878919  0.61930577     0.20700
C62         C  0.57995974  0.39433456  0.60581519    -0.54100
C63         C  0.56443198  0.40809196  0.62317208     0.09900
C64         C  0.57724572  0.42925207  0.57256879    -0.53600
C65         C  0.56112225  0.44402524  0.58910152     0.10500
H66         H  0.63391389  0.43088934  0.60589925     0.15000
H67         H  0.55360921  0.45050433  0.63304036     0.00700
H68         H  0.58141272  0.37273737  0.60657799     0.15300
H69         H  0.57649236  0.43063867  0.55110063     0.15100
C70         C  0.40362235  0.45212522  0.44469160     0.86900
C71         C  0.38362347  0.43318634  0.45846423    -0.53400
C72         C  0.36885351  0.41813192  0.44134948     0.09800
C73         C  0.37570035  0.42355861  0.41197441     0.20700
C74         C  0.42064487  0.43369202  0.42671878    -0.54100
C75         C  0.40583370  0.41883133  0.40954733     0.09900
C76         C  0.38674693  0.46872332  0.42549966    -0.53600
C77         C  0.37230387  0.45371250  0.40824425     0.10500
H78         H  0.38162137  0.43164236  0.47988324     0.15000
H79         H  0.36393551  0.41149906  0.39787278     0.00700
H80         H  0.44225532  0.43277904  0.42725080     0.15300
H81         H  0.38664190  0.49037221  0.42528093     0.15100
C82         C  0.57976905  0.60538563  0.39607573     0.86900
C83         C  0.55771952  0.62351803  0.38592327    -0.53400
C84         C  0.54564897  0.63880934  0.40496732     0.09800
C85         C  0.55562923  0.63283463  0.43329304     0.20700
C86         C  0.59809619  0.62384803  0.41182609    -0.54100
C87         C  0.58582230  0.63851126  0.43104243     0.09900
C88         C  0.56642485  0.58773936  0.41717492    -0.53600
C89         C  0.55342336  0.60184717  0.43670067     0.10500
H90         H  0.55434440  0.62632536  0.36485367     0.15000
H91         H  0.54527590  0.64448201  0.44899978     0.00700
H92         H  0.61922005  0.62603796  0.40735701     0.15300
H93         H  0.56700187  0.56610562  0.41663741     0.15100
C94         C  0.36649966  0.60755741  0.40844111     0.86900
C95         C  0.35081210  0.62271506  0.43004563    -0.53400
C96         C  0.36630606  0.63749247  0.44664413     0.09800
C97         C  0.39643700  0.63517201  0.44059871     0.20700
C98         C  0.38354816  0.62880057  0.39477105    -0.54100
C99         C  0.39864384  0.64391110  0.41125973     0.09900
C100        C  0.38620523  0.59034297  0.42393291    -0.53600
C101        C  0.40197851  0.60454024  0.44106799     0.10500
H102        H  0.32917903  0.62326739  0.43096885     0.15000
H103        H  0.40894064  0.64704052  0.45426344     0.00700
H104        H  0.38164627  0.63326356  0.37376908     0.15300
H105        H  0.38678984  0.56875777  0.42239432     0.15100
C106        C  0.54984049  0.44813805  0.44174387     0.86900
C107        C  0.56767358  0.46400612  0.42227302    -0.53400
C108        C  0.58141110  0.44825950  0.40492707     0.09800
C109        C  0.57653067  0.41845581  0.40869944     0.20700
C110        C  0.53199837  0.43065643  0.42379661    -0.54100
C111        C  0.54639737  0.41473863  0.40686317     0.09900
C112        C  0.56880119  0.42812442  0.45524711    -0.53600
C113        C  0.58291755  0.41277750  0.43761416     0.10500
H114        H  0.56876632  0.48562974  0.42176042     0.15000
H115        H  0.58806957  0.40599779  0.39444947     0.00700
H116        H  0.51037064  0.43036014  0.42489286     0.15300
H117        H  0.57115154  0.42666813  0.47657536     0.15100
C118        C  0.37089357  0.41652026  0.60088420     0.86900
C119        C  0.39207845  0.40212771  0.61688521    -0.53400
C120        C  0.40702191  0.41819917  0.63256062     0.09800
C121        C  0.39980323  0.44821260  0.62999525     0.20700
C122        C  0.35484608  0.43227750  0.62150353    -0.54100
C123        C  0.36966631  0.44868709  0.63715036     0.09900
C124        C  0.38590963  0.43733739  0.58473075    -0.53600
C125        C  0.40108907  0.45415540  0.59949800     0.10500
H126        H  0.39364484  0.38051529  0.61733358     0.15000
H127        H  0.41227105  0.46155462  0.64227651     0.00700
H128        H  0.33371262  0.42913433  0.62500190     0.15300
H129        H  0.38526493  0.43822475  0.56321038     0.15100
C130        C  0.58996366  0.59916724  0.63544561     0.86900
C131        C  0.60525212  0.61576690  0.61461303    -0.53400
C132        C  0.58933664  0.63106461  0.59894624     0.09800
C133        C  0.55947607  0.62840309  0.60546419     0.20700
C134        C  0.57303263  0.61918573  0.65066015    -0.54100
C135        C  0.55760711  0.63513293  0.63533057     0.09900
C136        C  0.57027904  0.58276925  0.61928161    -0.53600
C137        C  0.55438603  0.59795480  0.60326235     0.10500
H138        H  0.62685711  0.61624794  0.61305167     0.15000
H139        H  0.54670367  0.64085964  0.59259416     0.00700
H140        H  0.57503747  0.62200156  0.67191139     0.15300
H141        H  0.57014537  0.56111254  0.61917474     0.15100
C142        C  0.21673783  0.22632733  0.03356259     0.02700
C143        C  0.21597755  0.22574697  0.00540647     0.02600
C144        C  0.19984699  0.24428666  0.99216279    -0.17900
C145        C  0.18459546  0.26296748  0.00646202     0.02700
C146        C  0.18469253  0.26276747  0.03454000     0.02600
C147        C  0.20077805  0.24441128  0.04782183    -0.17900
H148        H  0.20234101  0.24546601  0.06921612     0.04700
H149        H  0.19931011  0.24445941  0.97069616     0.04700
C150        C  0.18169103  0.02537362  0.26020255     0.02700
C151        C  0.18704730  0.99770962  0.26314725     0.02600
C152        C  0.20426581  0.98502308  0.24489332    -0.17900
C153        C  0.21815237  0.99983501  0.22538952     0.02700
C154        C  0.21415052  0.02771659  0.22349765     0.02600
C155        C  0.19571232  0.04007211  0.24068111    -0.17900
H156        H  0.19267668  0.06140695  0.23917719     0.04700
H157        H  0.20884707  0.96407795  0.24747110     0.04700
C158        C  0.98962568  0.23843813  0.27825604     0.02700
C159        C  0.96402309  0.24683046  0.28707840     0.02600
C160        C  0.95114354  0.26768376  0.27383604    -0.17900
C161        C  0.96386543  0.28174817  0.25321706     0.02700
C162        C  0.99002084  0.27431019  0.24521275     0.02600
C163        C  0.00259059  0.25279923  0.25788840    -0.17900
H164        H  0.02247638  0.24697308  0.25159145     0.04700
H165        H  0.93154251  0.27394175  0.28059857     0.04700
C166        C  0.46043769  0.29236899  0.28545758     0.02700
C167        C  0.48808409  0.29584117  0.28024296     0.02600
C168        C  0.50110289  0.27886277  0.26223050    -0.17900
C169        C  0.48661897  0.25968837  0.24812621     0.02700
C170        C  0.45880323  0.25737403  0.25204485     0.02600
C171        C  0.44582898  0.27388677  0.27055582    -0.17900
H172        H  0.42457377  0.27171036  0.27401042     0.04700
H173        H  0.52237971  0.28089637  0.25880096     0.04700
C174        C  0.26117654  0.26992721  0.52973596     0.02700
C175        C  0.25942838  0.27865876  0.50387342     0.02600
C176        C  0.24044196  0.26691760  0.48723058    -0.17900
C177        C  0.22245519  0.24783624  0.49765209     0.02700
C178        C  0.22353514  0.24072485  0.52491444     0.02600
C179        C  0.24357376  0.25148236  0.54075568    -0.17900
H180        H  0.24478532  0.24655117  0.56162988     0.04700
H181        H  0.23937817  0.27273678  0.46658283     0.04700
C182        C  0.25595730  0.54482396  0.27577221     0.02700
C183        C  0.25544964  0.51675918  0.27941384     0.02600
C184        C  0.23851829  0.50118957  0.26364598    -0.17900
C185        C  0.22128977  0.51328184  0.24547101     0.02700
C186        C  0.22206081  0.54124922  0.24175946     0.02600
C187        C  0.23902287  0.55678815  0.25736253    -0.17900
H188        H  0.23964820  0.57822713  0.25463928     0.04700
H189        H  0.23751613  0.47981122  0.26666474     0.04700
C190        C  0.24820282  0.78089067  0.99915051     0.02700
C191        C  0.24839418  0.78165311  0.02716942     0.02600
C192        C  0.23339640  0.76308260  0.04188390    -0.17900
C193        C  0.21830926  0.74347940  0.02911534     0.02700
C194        C  0.21846001  0.74236769  0.00112761     0.02600
C195        C  0.23360218  0.76083272  0.98627202    -0.17900
H196        H  0.23290775  0.76046066  0.96480107     0.04700
H197        H  0.23353387  0.76384205  0.06335752     0.04700
C198        C  0.75945249  0.26555476  0.01653874     0.02700
C199        C  0.76138169  0.26174691  0.04431776     0.02600
C200        C  0.74339822  0.24421285  0.05721279    -0.17900
C201        C  0.72396470  0.23037255  0.04263640     0.02700
C202        C  0.72280562  0.23371547  0.01482371     0.02600
C203        C  0.74048647  0.25128256  0.00202301    -0.17900
H204        H  0.73901838  0.25439715  0.98081795     0.04700
H205        H  0.74392012  0.24205390  0.07858147     0.04700
C206        C  0.95506281  0.26250082  0.80663962     0.02700
C207        C  0.98308431  0.26578233  0.80373730     0.02600
C208        C  0.99714849  0.24947774  0.78552611    -0.17900
C209        C  0.98371830  0.23015182  0.77026134     0.02700
C210        C  0.95566511  0.22786156  0.77235843     0.02600
C211        C  0.94164051  0.24378110  0.79077129    -0.17900
H212        H  0.92006294  0.24288727  0.79148123     0.04700
H213        H  0.01848354  0.25200469  0.78302100     0.04700
C214        C  0.68452385  0.53326021  0.25973653     0.02700
C215        C  0.68576037  0.50521969  0.26227093     0.02600
C216        C  0.70040723  0.49027998  0.24365474    -0.17900
C217        C  0.71597319  0.50319937  0.22420968     0.02700
C218        C  0.71811147  0.53130817  0.22470510     0.02600
C219        C  0.70164909  0.54621551  0.24167324    -0.17900
H220        H  0.70272395  0.56779604  0.24131693     0.04700
H221        H  0.70080640  0.46872259  0.24514120     0.04700
C222        C  0.27192190  0.53217413  0.78415909     0.02700
C223        C  0.27473809  0.50426629  0.78627736     0.02600
C224        C  0.25761817  0.48984929  0.80335885    -0.17900
C225        C  0.23866781  0.50301408  0.81934853     0.02700
C226        C  0.23697901  0.53114648  0.81841483     0.02600
C227        C  0.25353317  0.54551216  0.80068555    -0.17900
H228        H  0.25103761  0.56687807  0.79869380     0.04700
H229        H  0.25858869  0.46826559  0.80370762     0.04700
C230        C  0.89831863  0.59415877  0.94614306     0.86900
C231        C  0.87983208  0.61286739  0.96195669    -0.53400
C232        C  0.86323580  0.62787436  0.94653669     0.09800
C233        C  0.86682102  0.62269979  0.91662420     0.20700
C234        C  0.87933996  0.57750818  0.92891403    -0.54100
C235        C  0.86294989  0.59246601  0.91337643     0.09900
C236        C  0.91313900  0.61277327  0.92650156    -0.53600
C237        C  0.89658145  0.62792498  0.91114125     0.10500
H238        H  0.87987803  0.61386612  0.98344711     0.15000
H239        H  0.85336185  0.63485319  0.90414496     0.00700
H240        H  0.87898209  0.55585825  0.92895210     0.15300
H241        H  0.93470812  0.61429707  0.92540354     0.15100
N242        N  0.94627260  0.56695010  0.99109647    -0.05700
N243        N  0.93947322  0.58609675  0.97433507    -0.57900
N244        N  0.92733289  0.54983326  0.05214600    -0.05400
N245        N  0.90783780  0.55747522  0.06855891    -0.60000
N246        N  0.94657364  0.56778376  0.05192809    -0.05000
N247        N  0.94076407  0.58749335  0.06841863    -0.57800
N248        N  0.92803116  0.54800951  0.99142685    -0.04700
N249        N  0.90866655  0.55392658  0.97484505    -0.60300
C250        C  0.91623844  0.57745260  0.96379432     0.96400
C251        C  0.91653783  0.58100953  0.07871487     0.96200
N252        N  0.94752468  0.46604196  0.05345980    -0.05900
N253        N  0.94112997  0.44701423  0.07067147    -0.58400
N254        N  0.92890672  0.48352936  0.99239569    -0.04000
N255        N  0.90977977  0.47760017  0.97560729    -0.59700
N256        N  0.94682893  0.46430552  0.99270059    -0.05900
N257        N  0.93968464  0.44475021  0.97634592    -0.58700
N258        N  0.92897075  0.48465807  0.05337100    -0.03700
N259        N  0.90985406  0.47861741  0.07064247    -0.59800
Mn260      Mn  0.92807489  0.51639496  0.02237292     1.18400
C261        C  0.91774020  0.45526195  0.08155438     0.98500
C262        C  0.91652276  0.45346108  0.96560104     0.99200
N263        N  0.01050571  0.56789467  0.05082071    -0.06000
N264        N  0.01484257  0.58732594  0.06779039    -0.62300
N265        N  0.03002905  0.54976157  0.98974289    -0.04800
N266        N  0.04837792  0.55705579  0.97187766    -0.62900
N267        N  0.01041414  0.56726448  0.99018335    -0.05500
N268        N  0.01486522  0.58631034  0.97259306    -0.62500
N269        N  0.03058647  0.55095608  0.05061244    -0.04400
N270        N  0.04923762  0.55912901  0.06736969    -0.63200
Mn271      Mn  0.97855547  0.56747595  0.02103520     1.10700
C272        C  0.03896757  0.58190189  0.07799855     0.99700
C273        C  0.03839843  0.57978187  0.96111273     0.99800
N274        N  0.01151694  0.46599566  0.99185695    -0.05500
N275        N  0.01630012  0.44690068  0.97451734    -0.60900
N276        N  0.03057741  0.48592114  0.05203497    -0.04800
N277        N  0.04921116  0.48103998  0.06971089    -0.57600
N278        N  0.01238110  0.46682735  0.05266749    -0.06100
N279        N  0.01872234  0.44853664  0.07062453    -0.60400
N280        N  0.03082170  0.48396115  0.99112004    -0.05100
N281        N  0.04932501  0.47683465  0.97335946    -0.57600
Mn282      Mn  0.97964975  0.46540046  0.02269883     1.20200
Mn283      Mn  0.03117741  0.51757872  0.02078297     1.10100
Cl284      Cl  0.97938717  0.51667563  0.02171403    -0.85600
C285        C  0.03985268  0.45366418  0.96306822     0.96800
C286        C  0.04163548  0.45777594  0.08133326     0.96600
C287        C  0.90040558  0.43856532  0.10009709     0.86900
C288        C  0.88697609  0.41458151  0.08627074    -0.53400
C289        C  0.87057343  0.39999320  0.10268944     0.09800
C290        C  0.86994246  0.41006361  0.13130321     0.20700
C291        C  0.87705769  0.45424714  0.11269453    -0.54100
C292        C  0.86129739  0.43919928  0.12904325     0.09900
C293        C  0.91522995  0.42620748  0.12373639    -0.53600
C294        C  0.89920885  0.41087238  0.13988276     0.10500
H295        H  0.88931498  0.41032134  0.06527442     0.15000
H296        H  0.85684219  0.39793471  0.14454659     0.00700
H297        H  0.87337282  0.47528097  0.10919901     0.15300
H298        H  0.93650617  0.42853120  0.12666476     0.15100
C299        C  0.05045930  0.40599641  0.90454673     0.86900
C300        C  0.03577063  0.42327356  0.92480526    -0.53400
C301        C  0.05208190  0.43742315  0.94127475     0.09800
C302        C  0.08243581  0.43245754  0.93568855     0.20700
C303        C  0.06916261  0.42513542  0.88984265    -0.54100
C304        C  0.08653146  0.43852833  0.90573684     0.09900
C305        C  0.06886023  0.38832499  0.92084213    -0.53600
C306        C  0.08574434  0.40174019  0.93699738     0.10500
H307        H  0.01416146  0.42401651  0.92617047     0.15000
H308        H  0.09600731  0.44341926  0.94906589     0.00700
H309        H  0.07014967  0.42620493  0.86833959     0.15300
H310        H  0.06883003  0.36669379  0.91939359     0.15100
C311        C  0.05415186  0.63278935  0.90786604     0.86900
C312        C  0.07233346  0.64706816  0.92727924    -0.53400
C313        C  0.08708818  0.63045483  0.94256530     0.09800
C314        C  0.08225479  0.60060211  0.93717101     0.20700
C315        C  0.07258842  0.61443190  0.89198388    -0.54100
C316        C  0.08760901  0.59780657  0.90706904     0.09900
C317        C  0.03710099  0.61414855  0.92526448    -0.53600
C318        C  0.05165434  0.59707377  0.94076080     0.10500
H319        H  0.07434126  0.66862578  0.92816329     0.15000
H320        H  0.09434156  0.58721386  0.94976818     0.00700
H321        H  0.07476724  0.61576607  0.87055209     0.15300
H322        H  0.01547058  0.61488635  0.92577028     0.15100
C323        C  0.86214466  0.43609672  0.91542319     0.86900
C324        C  0.88135447  0.45311006  0.93143786    -0.53400
C325        C  0.89891960  0.43879870  0.94654599     0.09800
C326        C  0.89520659  0.40776175  0.94367853     0.20700
C327        C  0.87979959  0.41756530  0.89904730    -0.54100
C328        C  0.89689884  0.40227677  0.91342067     0.09900
C329        C  0.84852631  0.41801869  0.93587353    -0.53600
C330        C  0.86532268  0.40284787  0.95041598     0.10500
H331        H  0.88060645  0.47475000  0.93135468     0.15000
H332        H  0.90901140  0.39553080  0.95567305     0.00700
H333        H  0.87746648  0.41541265  0.87776240     0.15300
H334        H  0.82701007  0.41602832  0.93768656     0.15100
C335        C  0.89923485  0.62414284  0.13963302     0.86900
C336        C  0.91650378  0.61123725  0.11800300    -0.53400
C337        C  0.90230719  0.59755294  0.09927398     0.09800
C338        C  0.87134671  0.59936359  0.10368401     0.20700
C339        C  0.87983473  0.64217174  0.12476117    -0.54100
C340        C  0.86454386  0.62950313  0.10637111     0.09900
C341        C  0.88190672  0.60151798  0.15053956    -0.53600
C342        C  0.86678913  0.58892374  0.13213128     0.10500
H343        H  0.93814211  0.61178724  0.11824160     0.15000
H344        H  0.85947662  0.58866477  0.08860986     0.00700
H345        H  0.87675257  0.66288103  0.13030084     0.15300
H346        H  0.87982612  0.59740689  0.17161799     0.15100
C347        C  0.70248526  0.52637815  0.76251552     0.02700
C348        C  0.70329891  0.49822145  0.76146421     0.02600
C349        C  0.71958382  0.48433735  0.77911304    -0.17900
C350        C  0.73537960  0.49832205  0.79725869     0.02700
C351        C  0.73379934  0.52648580  0.79901844     0.02600
C352        C  0.71764533  0.54030185  0.78116996    -0.17900
H353        H  0.71635809  0.56184686  0.78214465     0.04700
H354        H  0.72111379  0.46282986  0.77774250     0.04700
C355        C  0.04985296  0.62891128  0.13674383     0.86900
C356        C  0.06768206  0.60822376  0.14977546    -0.53400
C357        C  0.08554916  0.59612046  0.13315034     0.09800
C358        C  0.08161238  0.60366365  0.10370651     0.20700
C359        C  0.06901741  0.64706401  0.12121057    -0.54100
C360        C  0.08560439  0.63437781  0.10376225     0.09900
C361        C  0.03493339  0.61328854  0.11572164    -0.53600
C362        C  0.05117729  0.59924835  0.09864863     0.10500
H363        H  0.06890712  0.60625572  0.17119277     0.15000
H364        H  0.09494371  0.59271046  0.08981382     0.00700
H365        H  0.07008630  0.66840762  0.12469023     0.15300
H366        H  0.01331664  0.61266585  0.11497220     0.15100
C367        C  0.09488927  0.44079761  0.13255698     0.86900
C368        C  0.10714336  0.42118351  0.11261472    -0.53400
C369        C  0.08895123  0.40641804  0.09902218     0.09800
C370        C  0.05980930  0.41301943  0.10637942     0.20700
C371        C  0.07635442  0.45808338  0.11605915    -0.54100
C372        C  0.05793750  0.44393808  0.10191367     0.09900
C373        C  0.07674131  0.42375932  0.15012738    -0.53600
C374        C  0.05906713  0.40826457  0.13683101     0.10500
H375        H  0.12848476  0.41808544  0.11047385     0.15000
H376        H  0.04502687  0.40109964  0.09523039     0.00700
H377        H  0.07846506  0.47960414  0.11472839     0.15300
H378        H  0.08003194  0.42166987  0.17130488     0.15100
C379        C  0.21274237  0.01586552  0.81453135     0.02700
C380        C  0.21514151  0.04371190  0.81064767     0.02600
C381        C  0.19876294  0.05639466  0.79211792    -0.17900
C382        C  0.17966808  0.04189849  0.77782871     0.02700
C383        C  0.17545887  0.01425544  0.78334208     0.02600
C384        C  0.19230403  0.00155749  0.80176553    -0.17900
H385        H  0.19044451  0.98031503  0.80521114     0.04700
H386        H  0.20159737  0.07744534  0.78804573     0.04700
C387        C  0.46020166  0.79697102  0.32695464     0.02700
C388        C  0.48836706  0.79552988  0.32467114     0.02600
C389        C  0.50171489  0.81098996  0.30520221    -0.17900
C390        C  0.48742678  0.82692751  0.28721135     0.02700
C391        C  0.45923788  0.82669133  0.28820229     0.02600
C392        C  0.44597980  0.81240320  0.30842900    -0.17900
H393        H  0.42438402  0.81229163  0.30893451     0.04700
H394        H  0.52317831  0.80946710  0.30309666     0.04700
C395        C  0.50117839  0.31327201  0.77061047     0.02700
C396        C  0.47304396  0.31454688  0.77044554     0.02600
C397        C  0.45815470  0.29815370  0.78780844    -0.17900
C398        C  0.47099864  0.28096054  0.80568040     0.02700
C399        C  0.49918669  0.28151242  0.80757314     0.02600
C400        C  0.51402988  0.29713589  0.78936410    -0.17900
H401        H  0.53560799  0.29694462  0.78983331     0.04700
H402        H  0.43663236  0.29759415  0.78629454     0.04700
C403        C  0.58565790  0.10281624  0.90580439     0.86900
C404        C  0.56906846  0.12438511  0.89268207    -0.53400
C405        C  0.55527814  0.14035184  0.90978789     0.09800
C406        C  0.55772519  0.13153200  0.93926841     0.20700
C407        C  0.60239395  0.11755138  0.92620338    -0.54100
C408        C  0.58815421  0.13248346  0.94382623     0.09900
C409        C  0.56593671  0.08638150  0.92209625    -0.53600
C410        C  0.55111255  0.10089827  0.93986097     0.10500
H411        H  0.57068767  0.12882414  0.87162138     0.15000
H412        H  0.54599083  0.14374849  0.95353558     0.00700
H413        H  0.62404863  0.11677094  0.92626365     0.15300
H414        H  0.56464887  0.06481695  0.92053501     0.15100
N415        N  0.50347665  0.97249905  0.98252055    -0.05700
N416        N  0.51099532  0.95313364  0.96628951    -0.57900
N417        N  0.52100100  0.98844739  0.04453652    -0.05400
N418        N  0.53901820  0.98199985  0.06243347    -0.60000
N419        N  0.50258216  0.96974262  0.04338475    -0.05000
N420        N  0.50782783  0.95027849  0.06032598    -0.57800
N421        N  0.52215936  0.99101389  0.98344358    -0.04700
N422        N  0.54246947  0.98445233  0.96777733    -0.60300
C423        C  0.53503112  0.96108425  0.95658432     0.96400
C424        C  0.53050771  0.95820494  0.07233980     0.96200
N425        N  0.50214912  0.07090711  0.04671795    -0.05900
N426        N  0.50716671  0.08913136  0.06486071    -0.58400
N427        N  0.52230974  0.05530775  0.98600162    -0.04000
N428        N  0.54197108  0.06221407  0.96976109    -0.59700
N429        N  0.50381730  0.07393232  0.98629102    -0.05900
N430        N  0.51081759  0.09398338  0.97035095    -0.58700
N431        N  0.52118405  0.05284871  0.04625513    -0.03700
N432        N  0.53968011  0.05869328  0.06388650    -0.59800
Mn433      Mn  0.52199082  0.02181890  0.01506040     1.18400
C434        C  0.53052572  0.08125945  0.07551081     0.98500
C435        C  0.53465784  0.08626049  0.96000878     0.99200
N436        N  0.43931124  0.96996184  0.04400645    -0.06000
N437        N  0.43572736  0.95121664  0.06214230    -0.62300
N438        N  0.41906538  0.98896822  0.98409582    -0.04800
N439        N  0.39992460  0.98204280  0.96746060    -0.62900
N440        N  0.43869198  0.97151219  0.98309623    -0.05500
N441        N  0.43340358  0.95277835  0.96554390    -0.62500
N442        N  0.41955646  0.98730044  0.04475921    -0.04400
N443        N  0.40182466  0.98004078  0.06323246    -0.63200
Mn444      Mn  0.47098208  0.97069803  0.01302269     1.10700
C445        C  0.41236539  0.95756911  0.07406179     0.99700
C446        C  0.40920341  0.95942438  0.95596789     0.99800
N447        N  0.43975409  0.07169280  0.98502332    -0.05500
N448        N  0.43600848  0.09058323  0.96719864    -0.60900
N449        N  0.41884182  0.05234887  0.04614246    -0.04800
N450        N  0.40048993  0.05823563  0.06449314    -0.57600
N451        N  0.43834895  0.07000286  0.04663349    -0.06100
N452        N  0.43388063  0.08769087  0.06552019    -0.60400
N453        N  0.42004841  0.05418589  0.98455127    -0.05100
N454        N  0.40230077  0.06147536  0.96649235    -0.57600
Mn455      Mn  0.47076298  0.07191878  0.01612302     1.20200
Mn456      Mn  0.41856824  0.02080813  0.01485851     1.10100
Cl457      Cl  0.47057284  0.02130925  0.01466404    -0.85600
C458        C  0.41268014  0.08419490  0.95564570     0.96800
C459        C  0.41030273  0.08031720  0.07663153     0.96600
C460        C  0.54606298  0.94103116  0.09177050     0.86900
C461        C  0.53009531  0.93149202  0.11654179    -0.53400
C462        C  0.54459514  0.91558523  0.13318374     0.09800
C463        C  0.57337764  0.91124107  0.12391142     0.20700
C464        C  0.57092474  0.95489138  0.10320739    -0.54100
C465        C  0.58503154  0.93913416  0.12017899     0.09900
C466        C  0.55700919  0.91520692  0.07898379    -0.53600
C467        C  0.57171725  0.89993442  0.09591043     0.10500
H468        H  0.50929730  0.93633883  0.12018869     0.15000
H469        H  0.58499948  0.89852902  0.13763124     0.00700
H470        H  0.57656911  0.97529461  0.09861585     0.15300
H471        H  0.55453973  0.91031351  0.05819134     0.15100
C472        C  0.39680133  0.91979916  0.89270705     0.86900
C473        C  0.41209038  0.93470900  0.91392856    -0.53400
C474        C  0.39641678  0.94468842  0.93388089     0.09800
C475        C  0.36605384  0.93830472  0.93053010     0.20700
C476        C  0.38125346  0.89828744  0.90747317    -0.54100
C477        C  0.36466696  0.90751841  0.92688704     0.09900
C478        C  0.37565148  0.93927348  0.88311707    -0.53600
C479        C  0.35932298  0.94907264  0.90264226     0.10500
H480        H  0.43359552  0.93727375  0.91315246     0.15000
H481        H  0.35297158  0.94615949  0.94658734     0.00700
H482        H  0.38218941  0.87741374  0.90176188     0.15300
H483        H  0.37289809  0.94384194  0.86227920     0.15100
C484        C  0.39683161  0.14180646  0.90784738     0.86900
C485        C  0.37967537  0.12470425  0.88936524    -0.53400
C486        C  0.36426310  0.10590007  0.90202712     0.09800
C487        C  0.36862491  0.10511233  0.93232411     0.20700
C488        C  0.37703976  0.15264731  0.92843501    -0.54100
C489        C  0.36151841  0.13384208  0.94060762     0.09900
C490        C  0.41376531  0.12189799  0.92322814    -0.53600
C491        C  0.39933876  0.10254254  0.93635480     0.10500
H492        H  0.37773167  0.12922981  0.86840293     0.15000
H493        H  0.35678613  0.08973538  0.94309918     0.00700
H494        H  0.37283067  0.17380069  0.93045840     0.15300
H495        H  0.43529436  0.12363496  0.92446324     0.15100
C496        C  0.58966529  0.90866007  0.94638402     0.86900
C497        C  0.56821353  0.92483255  0.96091749    -0.53400
C498        C  0.55462423  0.94212191  0.94489541     0.09800
C499        C  0.56365131  0.94119896  0.91517289     0.20700
C500        C  0.57515673  0.89498297  0.92367253    -0.54100
C501        C  0.56196971  0.91152649  0.90688460     0.09900
C502        C  0.60726701  0.92969609  0.93255902    -0.53600
C503        C  0.59392596  0.94646496  0.91573587     0.10500
H504        H  0.56464994  0.92340468  0.98216271     0.15000
H505        H  0.55270258  0.95503730  0.90201677     0.00700
H506        H  0.57699065  0.87371216  0.92006388     0.15300
H507        H  0.62881240  0.92955971  0.93409707     0.15100
C508        C  0.39825392  0.91189527  0.13470159     0.86900
C509        C  0.37624034  0.93064484  0.14478619    -0.53400
C510        C  0.36139601  0.94220768  0.12542516     0.09800
C511        C  0.36977664  0.93390137  0.09722096     0.20700
C512        C  0.38372380  0.89186433  0.11719417    -0.54100
C513        C  0.36869937  0.90301867  0.09779009     0.09900
C514        C  0.41475618  0.92896405  0.11501908    -0.53600
C515        C  0.39991065  0.94085113  0.09543959     0.10500
H516        H  0.37201199  0.93376862  0.16572893     0.15000
H517        H  0.35757651  0.94304916  0.08139896     0.00700
H518        H  0.38418248  0.87048839  0.12065825     0.15300
H519        H  0.43619107  0.93144769  0.11647139     0.15100
C520        C  0.47549794  0.78905072  0.72201719     0.02700
C521        C  0.50358966  0.79050056  0.72002947     0.02600
C522        C  0.51765120  0.80841602  0.73620020    -0.17900
C523        C  0.50405475  0.82520507  0.75407683     0.02700
C524        C  0.47592961  0.82400931  0.75546862     0.02600
C525        C  0.46188503  0.80608884  0.73946462    -0.17900
H526        H  0.44047303  0.80410303  0.74194449     0.04700
H527        H  0.53925188  0.80853714  0.73560557     0.04700
C528        C  0.39567674  0.13150101  0.13153517     0.86900
C529        C  0.37847644  0.14678210  0.11168940    -0.53400
C530        C  0.36244992  0.13130518  0.09643900     0.09800
C531        C  0.36617346  0.10111911  0.10140654     0.20700
C532        C  0.37587644  0.11395890  0.14683759    -0.54100
C533        C  0.35987225  0.09848949  0.13144686     0.09900
C534        C  0.41199356  0.11232651  0.11431344    -0.53600
C535        C  0.39694243  0.09637452  0.09808550     0.10500
H536        H  0.37709430  0.16837300  0.11148229     0.15000
H537        H  0.35355537  0.08846182  0.08856615     0.00700
H538        H  0.37296813  0.11574952  0.16814866     0.15300
H539        H  0.43364324  0.11233889  0.11399486     0.15100
C540        C  0.54674281  0.12568672  0.13492820     0.86900
C541        C  0.56208614  0.10329797  0.14863839    -0.53400
C542        C  0.57729614  0.08809129  0.13194378     0.09800
C543        C  0.57454655  0.09595724  0.10239910     0.20700
C544        C  0.56768592  0.14099960  0.11873277    -0.54100
C545        C  0.58229464  0.12576171  0.10169251     0.09900
C546        C  0.52963304  0.11161125  0.11433952    -0.53600
C547        C  0.54394593  0.09584873  0.09719740     0.10500
H548        H  0.56284563  0.10125777  0.17006327     0.15000
H549        H  0.58644416  0.08344251  0.08852398     0.00700
H550        H  0.57120123  0.16225015  0.12115339     0.15300
H551        H  0.50815366  0.11400409  0.11333201     0.15100
C552        C  0.98510455  0.74178916  0.26910442     0.02700
C553        C  0.95729527  0.73817536  0.27220180     0.02600
C554        C  0.94354896  0.75142349  0.29256086    -0.17900
C555        C  0.95702082  0.76908564  0.30939700     0.02700
C556        C  0.98458353  0.77388378  0.30505840     0.02600
C557        C  0.99856026  0.75943803  0.28566977    -0.17900
H558        H  0.01975889  0.76273502  0.28273114     0.04700
H559        H  0.92223967  0.74846117  0.29487700     0.04700
C560        C  0.72201700  0.99920780  0.22675300     0.02700
C561        C  0.72028754  0.02724082  0.22988669     0.02600
C562        C  0.73745613  0.04014070  0.24756159    -0.17900
C563        C  0.75598765  0.02543389  0.26230397     0.02700
C564        C  0.75705183  0.99738872  0.25978835     0.02600
C565        C  0.74007217  0.98447206  0.24203644    -0.17900
H566        H  0.74075222  0.96294823  0.24030669     0.04700
H567        H  0.73587221  0.06148456  0.25045283     0.04700
C568        C  0.72274917  0.29911975  0.50750082     0.02700
C569        C  0.71797426  0.29509691  0.48013119     0.02600
C570        C  0.73425072  0.27736873  0.46565313    -0.17900
C571        C  0.75392358  0.26240079  0.47860358     0.02700
C572        C  0.75657958  0.26453095  0.50642600     0.02600
C573        C  0.74159262  0.28340342  0.52047699    -0.17900
H574        H  0.74402769  0.28533121  0.54171900     0.04700
H575        H  0.73107321  0.27457991  0.44462497     0.04700
C576        C  0.26601719  0.77518426  0.55113475     0.02700
C577        C  0.26554867  0.77317972  0.52322184     0.02600
C578        C  0.24704328  0.78807384  0.50888071    -0.17900
C579        C  0.22928443  0.80537981  0.52192247     0.02700
C580        C  0.23132507  0.80952158  0.54966082     0.02600
C581        C  0.24924456  0.79366191  0.56417739    -0.17900
H582        H  0.25042744  0.79586707  0.58549427     0.04700
H583        H  0.24540195  0.78499843  0.48769014     0.04700
C584        C  0.86395820  0.08249685  0.40006324     0.86900
C585        C  0.88384469  0.06884034  0.41833893    -0.53400
C586        C  0.89757532  0.08617999  0.43424591     0.09800
C587        C  0.88983808  0.11613569  0.43011050     0.20700
C588        C  0.84616371  0.09884060  0.41880338    -0.54100
C589        C  0.85922025  0.11716022  0.43387358     0.09900
C590        C  0.88030760  0.10337739  0.38479102    -0.53600
C591        C  0.89320420  0.12155594  0.40008189     0.10500
H592        H  0.88654226  0.04736925  0.41904078     0.15000
H593        H  0.90090206  0.13030143  0.44281681     0.00700
H594        H  0.82455890  0.09813661  0.41796315     0.15300
H595        H  0.87946262  0.10528971  0.36335394     0.15100
N596        N  0.94282829  0.05006421  0.56755537    -0.05700
N597        N  0.93585821  0.06840314  0.58526474    -0.57900
N598        N  0.92611466  0.98837048  0.54875300    -0.05400
N599        N  0.90758454  0.97028203  0.55416019    -0.60000
N600        N  0.94405806  0.98869785  0.56763561    -0.05000
N601        N  0.93828281  0.97059254  0.58586661    -0.57800
N602        N  0.92594539  0.04991441  0.54773629    -0.04700
N603        N  0.90765516  0.06849824  0.55129205    -0.60300
C604        C  0.91388777  0.07981426  0.57478480     0.96400
C605        C  0.91571640  0.95892420  0.57708930     0.96200
N606        N  0.94682247  0.98769957  0.46644300    -0.05900
N607        N  0.94026176  0.97202839  0.44634504    -0.58400
N608        N  0.92813134  0.04923205  0.48476942    -0.04000
N609        N  0.90855014  0.06522238  0.47751994    -0.59700
N610        N  0.94729137  0.04924508  0.46666007    -0.05900
N611        N  0.94077355  0.06523475  0.44682345    -0.58700
N612        N  0.92757268  0.98770706  0.48449211    -0.03700
N613        N  0.90782154  0.97193342  0.47686015    -0.59800
Mn614      Mn  0.92653440  0.01868731  0.51654225     1.18400
C615        C  0.91617489  0.96163436  0.45332054     0.98500
C616        C  0.91680603  0.07567662  0.45402567     0.99200
N617        N  0.00709362  0.98995029  0.57124600    -0.06000
N618        N  0.01284744  0.97409698  0.59137314    -0.62300
N619        N  0.02568110  0.05036167  0.55124895    -0.04800
N620        N  0.04447039  0.06789547  0.55645347    -0.62900
N621        N  0.00719815  0.05067957  0.57004750    -0.05500
N622        N  0.01355637  0.06821980  0.58871037    -0.62500
N623        N  0.02612940  0.98915886  0.55305145    -0.04400
N624        N  0.04509250  0.97255695  0.56051124    -0.63200
Mn625      Mn  0.97512579  0.01993909  0.56964452     1.10700
C626        C  0.03648729  0.96308929  0.58435334     0.99700
C627        C  0.03684567  0.07899929  0.57973320     0.99800
N628        N  0.01194118  0.04853527  0.46817353    -0.05500
N629        N  0.01969360  0.06508643  0.44900802    -0.60900
N630        N  0.02910117  0.98793172  0.48890314    -0.04800
N631        N  0.04839324  0.97057600  0.48400791    -0.57600
N632        N  0.01161089  0.98770186  0.46955942    -0.06100
N633        N  0.01884912  0.97023788  0.45121219    -0.60400
N634        N  0.02910589  0.04901755  0.48776028    -0.05100
N635        N  0.04849870  0.06617444  0.48242858    -0.57600
Mn636      Mn  0.97942920  0.01827712  0.46733717     1.20200
Mn637      Mn  0.02780841  0.01903907  0.52026931     1.10100
Cl638      Cl  0.97725541  0.01887081  0.51839950    -0.85600
C639        C  0.04245846  0.07611533  0.45823147     0.96800
C640        C  0.04156829  0.95932976  0.46063381     0.96600
C641        C  0.86289575  0.94821107  0.40068629     0.86900
C642        C  0.87769193  0.92481574  0.38820784    -0.53400
C643        C  0.89085754  0.90897218  0.40555684     0.09800
C644        C  0.88878048  0.91870197  0.43458363     0.20700
C645        C  0.84515092  0.93544847  0.42231095    -0.54100
C646        C  0.85834911  0.91942434  0.43960634     0.09900
C647        C  0.88416617  0.96375978  0.41584676    -0.53600
C648        C  0.89766207  0.94867603  0.43406609     0.10500
H649        H  0.87585923  0.91981653  0.36732808     0.15000
H650        H  0.89963588  0.90604175  0.44892835     0.00700
H651        H  0.82354575  0.93681947  0.42243898     0.15300
H652        H  0.88743927  0.98502417  0.41327959     0.15100
C653        C  0.05869321  0.93960286  0.44530065     0.86900
C654        C  0.07745382  0.95286827  0.42460045    -0.53400
C655        C  0.09228264  0.93506637  0.41012470     0.09800
C656        C  0.08753041  0.90596212  0.41806676     0.20700
C657        C  0.04225437  0.91945835  0.42927671    -0.54100
C658        C  0.05749329  0.90183008  0.41522340     0.09900
C659        C  0.07714065  0.92221976  0.46243443    -0.53600
C660        C  0.09233819  0.90479580  0.44792190     0.10500
H661        H  0.07819038  0.97422751  0.42110759     0.15000
H662        H  0.09987358  0.89163596  0.40650656     0.00700
H663        H  0.02061115  0.91917176  0.42901556     0.15300
H664        H  0.07853704  0.92394778  0.48383133     0.15100
C665        C  0.05285920  0.94552567  0.60251843     0.86900
C666        C  0.07825676  0.93427000  0.58935315    -0.53400
C667        C  0.09313102  0.91887194  0.60592199     0.09800
C668        C  0.08140555  0.91616416  0.63396607     0.20700
C669        C  0.03797785  0.92080984  0.61346887    -0.54100
C670        C  0.05315089  0.90536168  0.62993423     0.09900
C671        C  0.06283717  0.96026462  0.62733511    -0.53600
C672        C  0.07786543  0.94479013  0.64390207     0.10500
H673        H  0.08367151  0.93777407  0.56874630     0.15000
H674        H  0.09365522  0.90367772  0.64730786     0.00700
H675        H  0.01743374  0.91621465  0.60872509     0.15300
H676        H  0.05847032  0.98109708  0.63112386     0.15100
C677        C  0.86907041  0.14044822  0.58598173     0.86900
C678        C  0.88540135  0.11973946  0.57094316    -0.53400
C679        C  0.89799582  0.10178922  0.58692501     0.09800
C680        C  0.89256499  0.10639950  0.61728106     0.20700
C681        C  0.84984796  0.12438289  0.60349994    -0.54100
C682        C  0.86172787  0.10692775  0.62045458     0.09900
C683        C  0.88856922  0.15322332  0.60532686    -0.53600
C684        C  0.90046229  0.13581543  0.62230816     0.10500
H685        H  0.88682391  0.11927021  0.54943238     0.15000
H686        H  0.90257225  0.09194323  0.63051553     0.00700
H687        H  0.82851131  0.12808482  0.60373766     0.15300
H688        H  0.89105575  0.17467425  0.60694064     0.15100
C689        C  0.89836632  0.94109078  0.59418272     0.86900
C690        C  0.91311047  0.92718236  0.61705079    -0.53400
C691        C  0.89685018  0.91177768  0.63277132     0.09800
C692        C  0.86762971  0.91211639  0.62449946     0.20700
C693        C  0.88426828  0.91829571  0.57935468    -0.54100
C694        C  0.86787261  0.90338663  0.59546545     0.09900
C695        C  0.87575200  0.95682411  0.60780546    -0.53600
C696        C  0.85980142  0.94154575  0.62384798     0.10500
H697        H  0.93443515  0.92884273  0.62003286     0.15000
H698        H  0.85444387  0.89974351  0.63743267     0.00700
H699        H  0.88615351  0.91507959  0.55813366     0.15300
H700        H  0.87314900  0.97817997  0.60545111     0.15100
C701        C  0.69730746  0.76361558  0.53172512     0.02700
C702        C  0.69503010  0.76855510  0.50423826     0.02600
C703        C  0.71389950  0.78514298  0.49141724    -0.17900
C704        C  0.73500197  0.79648141  0.50561221     0.02700
C705        C  0.73729971  0.79102835  0.53300790     0.02600
C706        C  0.71816307  0.77511207  0.54594401    -0.17900
H707        H  0.72024933  0.77059892  0.56684825     0.04700
H708        H  0.71221781  0.78913164  0.47037867     0.04700
C709        C  0.09097878  0.13256308  0.43980616     0.86900
C710        C  0.07593941  0.11282171  0.45745081    -0.53400
C711        C  0.05938383  0.09606646  0.44379212     0.09800
C712        C  0.06050643  0.10027137  0.41291405     0.20700
C713        C  0.10582712  0.11524494  0.41941467    -0.54100
C714        C  0.09027600  0.09847682  0.40514341     0.09900
C715        C  0.06919393  0.14649172  0.42397575    -0.53600
C716        C  0.05456984  0.13013216  0.40804887     0.10500
H717        H  0.07776733  0.11249427  0.47888662     0.15000
H718        H  0.04738245  0.08663358  0.40164491     0.00700
H719        H  0.12697015  0.11756876  0.41505864     0.15300
H720        H  0.06847065  0.16799544  0.42186528     0.15100
C721        C  0.09107535  0.12983872  0.59621976     0.86900
C722        C  0.07187138  0.14862025  0.61071174    -0.53400
C723        C  0.05273180  0.13595686  0.62568339     0.09800
C724        C  0.05420272  0.10519306  0.62395064     0.20700
C725        C  0.10198794  0.11165926  0.61787246    -0.54100
C726        C  0.08301661  0.09900734  0.63276930     0.09900
C727        C  0.07346423  0.11191520  0.57953123    -0.53600
C728        C  0.05392777  0.09881934  0.59360657     0.10500
H729        H  0.07478499  0.17006554  0.61070007     0.15000
H730        H  0.03868104  0.09464024  0.63585218     0.00700
H731        H  0.12309022  0.10994616  0.62215042     0.15300
H732        H  0.07651400  0.10952209  0.55830273     0.15100
C733        C  0.98411810  0.74961788  0.78374221     0.02700
C734        C  0.95718228  0.75550638  0.78991305     0.02600
C735        C  0.94410328  0.77481375  0.77469723    -0.17900
C736        C  0.95775956  0.78858313  0.75424768     0.02700
C737        C  0.98420264  0.78125240  0.74716964     0.02600
C738        C  0.99715108  0.76197034  0.76233292    -0.17900
H739        H  0.01752286  0.75646978  0.75749764     0.04700
H740        H  0.92376898  0.78021528  0.77975354     0.04700
C741        C  0.71299308  0.03801784  0.78746157     0.02700
C742        C  0.70883177  0.01040149  0.78403052     0.02600
C743        C  0.72315891  0.99693284  0.76420801    -0.17900
C744        C  0.74162066  0.01060865  0.74779603     0.02700
C745        C  0.74683743  0.03810712  0.75209407     0.02600
C746        C  0.73187753  0.05168558  0.77160564    -0.17900
H747        H  0.73498954  0.07286124  0.77454946     0.04700
H748        H  0.71950496  0.97585874  0.76121570     0.04700
C749        C  0.72737576  0.73492588  0.01820285     0.02700
C750        C  0.72125267  0.72977784  0.04534411     0.02600
C751        C  0.70055992  0.74431355  0.05787790    -0.17900
C752        C  0.68496604  0.76287587  0.04375136     0.02700
C753        C  0.69053640  0.76743856  0.01638588     0.02600
C754        C  0.71182621  0.75361943  0.00415502    -0.17900
H755        H  0.71668950  0.75798483  0.98361526     0.04700
H756        H  0.69642193  0.74099371  0.07876642     0.04700
C757        C  0.90531163  0.86493788  0.68365044     0.30100
C758        C  0.89868221  0.84239002  0.69881989    -0.36200
C759        C  0.91801391  0.83382553  0.71667488     0.16100
C760        C  0.94203299  0.84687542  0.71974979     0.21900
C761        C  0.94860178  0.86955912  0.70470080    -0.34300
C762        C  0.92947745  0.87776317  0.68639945     0.16000
O763        O  0.89079451  0.87537839  0.66474503    -0.26300
C764        C  0.90588020  0.89503257  0.65503046     0.05800
C765        C  0.93027380  0.89738490  0.66768018    -0.31200
O766        O  0.95840437  0.83361169  0.73505314    -0.23000
C767        C  0.94489862  0.81160176  0.74147230    -0.03000
C768        C  0.91943538  0.81090370  0.73105320    -0.17500
H769        H  0.88029487  0.83150577  0.69593890     0.20500
H770        H  0.96787174  0.87917628  0.70607698     0.18900
H771        H  0.94629437  0.91133402  0.66361654     0.18800
H772        H  0.90520425  0.79466099  0.73175300     0.14700
C773        C  0.80986397  0.95306044  0.67138165     0.30100
C774        C  0.79524392  0.94768264  0.69464122    -0.36200
C775        C  0.77808926  0.96791930  0.70327149     0.16100
C776        C  0.77531166  0.99162251  0.68967063     0.21900
C777        C  0.78955771  0.99681958  0.66613285    -0.34300
C778        C  0.80703266  0.97673748  0.65773249     0.16000
O779        O  0.82842955  0.93775007  0.66098587    -0.26300
C780        C  0.83774500  0.95173080  0.64045754     0.05800
C781        C  0.82513024  0.97621155  0.63737035    -0.31200
O782        O  0.76074697  0.00894707  0.70281551    -0.23000
C783        C  0.75441078  0.99647632  0.72532517    -0.03000
C784        C  0.76412419  0.97055959  0.72644709    -0.17500
H785        H  0.79808963  0.92956027  0.70592907     0.20500
H786        H  0.78823017  0.01578763  0.65596240     0.18900
H787        H  0.82900021  0.99151913  0.62266499     0.18800
H788        H  0.76311348  0.95667677  0.74288464     0.14700
C789        C  0.79715821  0.81964664  0.55273302     0.30100
C790        C  0.82235624  0.83066617  0.54734871    -0.36200
C791        C  0.83075937  0.85053851  0.56481068     0.16100
C792        C  0.81569035  0.85828602  0.58651869     0.21900
C793        C  0.79040657  0.84743854  0.59176531    -0.34300
C794        C  0.78170454  0.82808614  0.57390671     0.16000
O795        O  0.78417166  0.80348636  0.53705805    -0.26300
C796        C  0.75994718  0.80191122  0.54789794     0.05800
C797        C  0.75731451  0.81648116  0.57117504    -0.31200
O798        O  0.82707227  0.87745436  0.59998649    -0.23000
C799        C  0.84948883  0.88246581  0.58656189    -0.03000
C800        C  0.85284634  0.86645791  0.56429622    -0.17500
H801        H  0.83394434  0.82509938  0.52999384     0.20500
H802        H  0.77794830  0.85446363  0.60795657     0.18900
H803        H  0.73937855  0.82019544  0.58271175     0.18800
H804        H  0.86904606  0.86655805  0.54993398     0.14700
C805        C  0.81302483  0.09104378  0.66888307     0.30100
C806        C  0.78815319  0.09379739  0.68164677    -0.36200
C807        C  0.78344630  0.07733275  0.70371653     0.16100
C808        C  0.80176109  0.05889203  0.71230787     0.21900
C809        C  0.82702212  0.05652241  0.69978626    -0.34300
C810        C  0.83196891  0.07349572  0.67792050     0.16000
O811        O  0.82100398  0.10418766  0.64763068    -0.26300
C812        C  0.84564189  0.09544325  0.64278712     0.05800
C813        C  0.85372014  0.07638815  0.66124140    -0.31200
O814        O  0.79198663  0.04364534  0.73159954    -0.23000
C815        C  0.76723348  0.05277172  0.73573799    -0.03000
C816        C  0.76107596  0.07399085  0.71910780    -0.17500
H817        H  0.77326006  0.10754778  0.67451073     0.20500
H818        H  0.84153374  0.04204768  0.70625368     0.18900
H819        H  0.87262251  0.06610809  0.66216269     0.18800
H820        H  0.74209329  0.08395825  0.71713357     0.14700
C821        C  0.04352345  0.84978625  0.67145719     0.30100
C822        C  0.04869601  0.83393759  0.69380479    -0.36200
C823        C  0.02795288  0.81697015  0.70217204     0.16100
C824        C  0.00395522  0.81548269  0.68917181     0.21900
C825        C  0.99911803  0.83073818  0.66637360    -0.34300
C826        C  0.01966924  0.84799549  0.65825144     0.16000
O827        O  0.05855661  0.86948474  0.66253422    -0.26300
C828        C  0.04416761  0.88062675  0.64346407     0.05800
C829        C  0.01989146  0.86779377  0.63965762    -0.31200
O830        O  0.98605746  0.80130138  0.70235883    -0.23000
C831        C  0.99854081  0.79371897  0.72426872    -0.03000
C832        C  0.02493488  0.80238054  0.72488246    -0.17500
H833        H  0.06686144  0.83608667  0.70497652     0.20500
H834        H  0.97990765  0.83063820  0.65683501     0.18900
H835        H  0.00404673  0.87317930  0.62632175     0.18800
H836        H  0.03894825  0.80042920  0.74091774     0.14700
C837        C  0.80887493  0.88356821  0.47392364     0.30100
C838        C  0.78306398  0.87980365  0.48429312    -0.36200
C839        C  0.77437943  0.85332490  0.48672349     0.16100
C840        C  0.79002767  0.83187048  0.47963324     0.21900
C841        C  0.81639884  0.83560431  0.47035279    -0.34300
C842        C  0.82513049  0.86222937  0.46785399     0.16000
O843        O  0.81932793  0.90658144  0.46652567    -0.26300
C844        C  0.84299955  0.90021837  0.45618072     0.05800
C845        C  0.84785304  0.87284960  0.45677327    -0.31200
O846        O  0.77752158  0.80883539  0.48320950    -0.23000
C847        C  0.75350833  0.81573076  0.49258704    -0.03000
C848        C  0.75065516  0.84314175  0.49542688    -0.17500
H849        H  0.77018205  0.89644377  0.48904473     0.20500
H850        H  0.82892401  0.81897506  0.46469116     0.18900
H851        H  0.86432740  0.86219743  0.44770349     0.18800
H852        H  0.73395522  0.85387604  0.50395874     0.14700
C853        C  0.16911511  0.83224494  0.49955035     0.30100
C854        C  0.14232113  0.83991209  0.50210011    -0.36200
C855        C  0.13330081  0.85841590  0.48340551     0.16100
C856        C  0.14936756  0.86805512  0.46313421     0.21900
C857        C  0.17622335  0.86056605  0.46072710    -0.34300
C858        C  0.18540436  0.84250027  0.47976555     0.16000
O859        O  0.18212459  0.81679825  0.51605265    -0.26300
C860        C  0.20711985  0.81725043  0.50686814     0.05800
C861        C  0.21034229  0.83279806  0.48420568    -0.31200
O862        O  0.13693743  0.88529529  0.44797490    -0.23000
C863        C  0.11284418  0.88726525  0.45905351    -0.03000
C864        C  0.10937083  0.87104077  0.48120442    -0.17500
H865        H  0.12967140  0.83264091  0.51808335     0.20500
H866        H  0.18921270  0.86880138  0.44549343     0.18900
H867        H  0.22863682  0.83752883  0.47360938     0.18800
H868        H  0.09180809  0.86883023  0.49369153     0.14700
C869        C  0.18960736  0.86384833  0.56519082     0.30100
C870        C  0.17295717  0.88511921  0.55815523    -0.36200
C871        C  0.15276675  0.89152599  0.57643430     0.16100
C872        C  0.14954205  0.87822877  0.60021983     0.21900
C873        C  0.16649153  0.85726269  0.60746750    -0.34300
C874        C  0.18644932  0.85050477  0.58895308     0.16000
O875        O  0.20708586  0.85225211  0.54941173    -0.26300
C876        C  0.21510254  0.83083482  0.56280283     0.05800
C877        C  0.20335083  0.82912546  0.58795171    -0.31200
O878        O  0.12840294  0.88633722  0.61357820    -0.23000
C879        C  0.11786191  0.90499822  0.59817105    -0.03000
C880        C  0.13219965  0.90912191  0.57472922    -0.17500
H881        H  0.17461828  0.89487750  0.53904242     0.20500
H882        H  0.16337817  0.84605852  0.62560325     0.18900
H883        H  0.20500404  0.81314179  0.60227049     0.18800
H884        H  0.12791432  0.92265367  0.55860611     0.14700
C885        C  0.81138497  0.16650974  0.44570874     0.30100
C886        C  0.78617412  0.17800230  0.44269859    -0.36200
C887        C  0.78393900  0.20484679  0.44978180     0.16100
C888        C  0.80505098  0.21926210  0.45961334     0.21900
C889        C  0.83045401  0.20774376  0.46249011    -0.34300
C890        C  0.83276282  0.18085188  0.45502866     0.16000
O891        O  0.81783105  0.14209638  0.43903292    -0.26300
C892        C  0.84381268  0.14042118  0.44377337     0.05800
C893        C  0.85426322  0.16401828  0.45400358    -0.31200
O894        O  0.79759749  0.24290206  0.46828675    -0.23000
C895        C  0.77144572  0.24376524  0.46376516    -0.03000
C896        C  0.76197330  0.22072213  0.45181119    -0.17500
H897        H  0.76936983  0.16665502  0.43552734     0.20500
H898        H  0.84705197  0.21881189  0.47048921     0.18900
H899        H  0.87478637  0.16863154  0.45852266     0.18800
H900        H  0.74144311  0.21514675  0.44841654     0.14700
C901        C  0.83624210  0.19675563  0.55989513     0.30100
C902        C  0.82748951  0.22333647  0.56018912    -0.36200
C903        C  0.80566148  0.22910473  0.54409216     0.16100
C904        C  0.79351863  0.20999458  0.52871070     0.21900
C905        C  0.80248894  0.18356095  0.52810857    -0.34300
C906        C  0.82416912  0.17776070  0.54431870     0.16000
O907        O  0.85471659  0.18652550  0.57512904    -0.26300
C908        C  0.85453305  0.16061542  0.56934324     0.05800
C909        C  0.83603855  0.15407141  0.55004426    -0.31200
O910        O  0.77387235  0.21972567  0.51475594    -0.23000
C911        C  0.77348536  0.24548642  0.52095910    -0.03000
C912        C  0.79259932  0.25247437  0.53946180    -0.17500
H913        H  0.83669909  0.23830810  0.57252506     0.20500
H914        H  0.79298272  0.16851473  0.51608365     0.18900
H915        H  0.83081741  0.13446614  0.54279912     0.18800
H916        H  0.79708771  0.27207048  0.54719631     0.14700
C917        C  0.80694954  0.97636895  0.30215753     0.30100
C918        C  0.83300996  0.97673036  0.31210834    -0.36200
C919        C  0.83538042  0.97291036  0.33957939     0.16100
C920        C  0.81362208  0.96878737  0.35602475     0.21900
C921        C  0.78762114  0.96850391  0.34612412    -0.34300
C922        C  0.78527127  0.97215031  0.31869549     0.16000
O923        O  0.79986582  0.98252027  0.27776281    -0.26300
C924        C  0.77329449  0.98182353  0.27858006     0.05800
C925        C  0.76323823  0.97501765  0.30350124    -0.31200
O926        O  0.82044492  0.96267209  0.38040651    -0.23000
C927        C  0.84700361  0.96277234  0.37982226    -0.03000
C928        C  0.85735541  0.96984636  0.35495718    -0.17500
H929        H  0.85021290  0.98001656  0.29936579     0.20500
H930        H  0.77041587  0.96530931  0.35889416     0.18900
H931        H  0.74268905  0.97570966  0.31023919     0.18800
H932        H  0.87795832  0.96926381  0.34837507     0.14700
C933        C  0.80640797  0.04496079  0.30546484     0.30100
C934        C  0.83259235  0.04541354  0.31511126    -0.36200
C935        C  0.83535260  0.05173160  0.34207774     0.16100
C936        C  0.81384520  0.05773778  0.35818739     0.21900
C937        C  0.78767117  0.05709305  0.34861125    -0.34300
C938        C  0.78489141  0.05052004  0.32177497     0.16000
O939        O  0.79911783  0.03762831  0.28150935    -0.26300
C940        C  0.77259465  0.03876038  0.28238109     0.05800
C941        C  0.76264759  0.04671661  0.30695724    -0.31200
O942        O  0.82106794  0.06614694  0.38176598    -0.23000
C943        C  0.84766139  0.06558685  0.38110100    -0.03000
C944        C  0.85756214  0.05583476  0.35698568    -0.17500
H945        H  0.84960760  0.04101850  0.30248927     0.20500
H946        H  0.77066635  0.06175778  0.36115160     0.18900
H947        H  0.74205129  0.04728573  0.31355931     0.18800
H948        H  0.87811174  0.05529731  0.35023921     0.14700
C949        C  0.02485205  0.81470505  0.34398959     0.30100
C950        C  0.04453586  0.82031985  0.36262725    -0.36200
C951        C  0.04293790  0.84544021  0.37460759     0.16100
C952        C  0.02345702  0.86383081  0.36858208     0.21900
C953        C  0.00417837  0.85846117  0.34952229    -0.34300
C954        C  0.00573599  0.83335876  0.33761505     0.16000
O955        O  0.02072872  0.79151859  0.33248898    -0.26300
C956        C  0.99860357  0.79546445  0.31882299     0.05800
C957        C  0.98887389  0.82131547  0.32065703    -0.31200
O958        O  0.02535772  0.88579627  0.38267428    -0.23000
C959        C  0.04645079  0.88144148  0.39771907    -0.03000
C960        C  0.05815647  0.85669747  0.39362836    -0.17500
H961        H  0.05943580  0.80580710  0.36809605     0.20500
H962        H  0.98855528  0.87251620  0.34491379     0.18900
H963        H  0.97090641  0.82944281  0.31217976     0.18800
H964        H  0.07539170  0.84829930  0.40325258     0.14700
C965        C  0.93399164  0.80766363  0.36323078     0.30100
C966        C  0.93697216  0.82332618  0.38624702    -0.36200
C967        C  0.91875003  0.84444672  0.38939146     0.16100
C968        C  0.89893563  0.84918034  0.37124155     0.21900
C969        C  0.89541298  0.83312083  0.34901218    -0.34300
C970        C  0.91366845  0.81251549  0.34568827     0.16000
O971        O  0.95126434  0.79016956  0.35368830    -0.26300
C972        C  0.94164592  0.78386606  0.32989251     0.05800
C973        C  0.91814651  0.79698642  0.32415266    -0.31200
O974        O  0.88654411  0.87169730  0.37543166    -0.23000
C975        C  0.89820911  0.88191431  0.39662399    -0.03000
C976        C  0.91824389  0.86566978  0.40659227    -0.17500
H977        H  0.95356076  0.82062874  0.39950035     0.20500
H978        H  0.88076300  0.83778266  0.33412478     0.18900
H979        H  0.90759204  0.79731385  0.30555894     0.18800
H980        H  0.93170585  0.86987854  0.42266220     0.14700
C981        C  0.62178602  0.05653670  0.17432481     0.30100
C982        C  0.63005803  0.04757214  0.19928556    -0.36200
C983        C  0.65763333  0.04753789  0.20359069     0.16100
C984        C  0.67596915  0.05559206  0.18462368     0.21900
C985        C  0.66767760  0.06388537  0.15930780    -0.34300
C986        C  0.63999230  0.06387877  0.15495048     0.16000
O987        O  0.59700682  0.06153547  0.16750691    -0.26300
C988        C  0.59910372  0.07187737  0.14321125     0.05800
C989        C  0.62542406  0.07322287  0.13414256    -0.31200
O990        O  0.70086484  0.05235076  0.19249026    -0.23000
C991        C  0.69842117  0.04220573  0.21690515    -0.03000
C992        C  0.67190463  0.03884173  0.22470435    -0.17500
H993        H  0.61590922  0.04161871  0.21455426     0.20500
H994        H  0.68180601  0.07009016  0.14412560     0.18900
H995        H  0.63292067  0.08283082  0.11633269     0.18800
H996        H  0.66434371  0.02886799  0.24230397     0.14700
C997        C  0.62293403  0.97397772  0.85796625     0.30100
C998        C  0.62660048  0.97787137  0.83035447    -0.36200
C999        C  0.65286116  0.98406294  0.82174412     0.16100
C1000       C  0.67375154  0.98598847  0.83918179     0.21900
C1001       C  0.66992411  0.98277454  0.86646542    -0.34300
C1002       C  0.64398243  0.97702955  0.87499439     0.16000
O1003       O  0.60118832  0.96516354  0.87047807    -0.26300
C1004       C  0.60870468  0.96277306  0.89575296     0.05800
C1005       C  0.63489814  0.97073037  0.89957341    -0.31200
O1006       O  0.69636827  0.99291832  0.82762333    -0.23000
C1007       C  0.69035628  0.99575613  0.80221771    -0.03000
C1008       C  0.66346728  0.99044618  0.79727695    -0.17500
H1009       H  0.61034019  0.97581207  0.81659242     0.20500
H1010       H  0.68622847  0.98455097  0.88021094     0.18900
H1011       H  0.64650842  0.96947274  0.91747522     0.18800
H1012       H  0.65294923  0.99293309  0.77883313     0.14700
C1013       C  0.64343463  0.81146530  0.98832891     0.30100
C1014       C  0.61756857  0.82138939  0.98403992    -0.36200
C1015       C  0.61564914  0.84858050  0.97730871     0.16100
C1016       C  0.63771709  0.86466495  0.97388643     0.21900
C1017       C  0.66356094  0.85480254  0.97838543    -0.34300
C1018       C  0.66543978  0.82781701  0.98594856     0.16000
O1019       O  0.64957651  0.78737629  0.99710905    -0.26300
C1020       C  0.67584227  0.78832978  0.00105048     0.05800
C1021       C  0.68677597  0.81294978  0.99395211    -0.31200
O1022       O  0.63155737  0.88862982  0.96476927    -0.23000
C1023       C  0.60504473  0.88818786  0.96261012    -0.03000
C1024       C  0.59412278  0.86387715  0.97096041    -0.17500
H1025       H  0.60008421  0.80886413  0.98621332     0.20500
H1026       H  0.68102776  0.86734608  0.97621444     0.18900
H1027       H  0.70713452  0.81958897  0.99637565     0.18800
H1028       H  0.57355275  0.85749244  0.96973829     0.14700
C1029       C  0.52649217  0.87203917  0.80099672     0.30100
C1030       C  0.52591485  0.89604395  0.81568117    -0.36200
C1031       C  0.53802988  0.89536205  0.84079446     0.16100
C1032       C  0.54947977  0.87246991  0.85055843     0.21900
C1033       C  0.55065870  0.84889194  0.83573686    -0.34300
C1034       C  0.53907595  0.84970244  0.81066368     0.16000
O1035       O  0.51390329  0.86705816  0.77859429    -0.26300
C1036       C  0.51915847  0.84140057  0.77359876     0.05800
C1037       C  0.53499659  0.82979186  0.79282154    -0.31200
O1038       O  0.55846103  0.87542094  0.87470493    -0.23000
C1039       C  0.55312394  0.90064111  0.88095029    -0.03000
C1040       C  0.54052678  0.91425779  0.86041764    -0.17500
H1041       H  0.51594593  0.91367594  0.80844240     0.20500
H1042       H  0.55940378  0.83086155  0.84358220     0.18900
H1043       H  0.54034482  0.80898941  0.79475423     0.18800
H1044       H  0.53409621  0.93482723  0.86000943     0.14700
C1045       C  0.42385315  0.89559151  0.83279294     0.30100
C1046       C  0.42417694  0.89100337  0.80537669    -0.36200
C1047       C  0.43942472  0.86923803  0.79681477     0.16100
C1048       C  0.45367381  0.85348525  0.81406579     0.21900
C1049       C  0.45348586  0.85817431  0.84137491    -0.34300
C1050       C  0.43807207  0.87970829  0.84993158     0.16000
O1051       O  0.40887473  0.91304206  0.84537255    -0.26300
C1052       C  0.41352416  0.90819775  0.87084510     0.05800
C1053       C  0.43188963  0.88794494  0.87484064    -0.31200
O1054       O  0.46728686  0.83479799  0.80183887    -0.23000
C1055       C  0.46156903  0.83844407  0.77645653    -0.03000
C1056       C  0.44414668  0.85942211  0.77204054    -0.17500
H1057       H  0.41281802  0.90310901  0.79180353     0.20500
H1058       H  0.46429127  0.84564518  0.85502220     0.18900
H1059       H  0.43787702  0.87908438  0.89342312     0.18800
H1060       H  0.43719840  0.86710183  0.75329137     0.14700
C1061       C  0.63007166  0.80302092  0.06069448     0.30100
C1062       C  0.60727416  0.81767321  0.05399320    -0.36200
C1063       C  0.60191929  0.84024235  0.06944841     0.16100
C1064       C  0.61750263  0.84737077  0.09062691     0.21900
C1065       C  0.64027208  0.83264628  0.09745453    -0.34300
C1066       C  0.64605023  0.81041598  0.08147623     0.16000
O1067       O  0.64049210  0.78355068  0.04658090    -0.26300
C1068       C  0.66384036  0.77859241  0.05776348     0.05800
C1069       C  0.66807639  0.79432158  0.08013408    -0.31200
O1070       O  0.60888816  0.86919128  0.10235404    -0.23000
C1071       C  0.58765493  0.87632010  0.08841475    -0.03000
C1072       C  0.58247998  0.85916473  0.06745723    -0.17500
H1073       H  0.59517905  0.81246201  0.03716100     0.20500
H1074       H  0.65312580  0.83872810  0.11344122     0.18900
H1075       H  0.68595406  0.79570719  0.09185428     0.18800
H1076       H  0.56657455  0.86022740  0.05318754     0.14700
C1077       C  0.63883710  0.94690457  0.16307462     0.30100
C1078       C  0.65404352  0.94137768  0.18561611    -0.36200
C1079       C  0.67428261  0.95975297  0.19119252     0.16100
C1080       C  0.67948970  0.98154766  0.17522131     0.21900
C1081       C  0.66437595  0.98702242  0.15271927    -0.34300
C1082       C  0.64377411  0.96907601  0.14753244     0.16000
O1083       O  0.61788342  0.93344643  0.15516074    -0.26300
C1084       C  0.60910253  0.94732852  0.13451756     0.05800
C1085       C  0.62447841  0.96973542  0.12881882    -0.31200
O1086       O  0.69797205  0.99709949  0.18491246    -0.23000
C1087       C  0.70456431  0.98555341  0.20762611    -0.03000
C1088       C  0.69058998  0.96202477  0.21255001    -0.17500
H1089       H  0.64967766  0.92458168  0.19846403     0.20500
H1090       H  0.66771532  0.00469802  0.14078381     0.18900
H1091       H  0.62168162  0.98453626  0.11347414     0.18800
H1092       H  0.69103496  0.94954997  0.23007061     0.14700
C1093       C  0.67254057  0.05653999  0.84071695     0.30100
C1094       C  0.66230718  0.05470976  0.86663907    -0.36200
C1095       C  0.63770782  0.06710534  0.87113842     0.16100
C1096       C  0.62403235  0.08015088  0.85142389     0.21900
C1097       C  0.63388989  0.08128182  0.82531928    -0.34300
C1098       C  0.65870185  0.06925296  0.82092253     0.16000
O1099       O  0.69509614  0.04622859  0.83206573    -0.26300
C1100       C  0.69584938  0.05251932  0.80642057     0.05800
C1101       C  0.67373700  0.06692163  0.79841204    -0.31200
O1102       O  0.60290906  0.09274660  0.86058141    -0.23000
C1103       C  0.60292594  0.08766614  0.88649705    -0.03000
C1104       C  0.62388750  0.07132499  0.89409027    -0.17500
H1105       H  0.67306489  0.04484999  0.88232019     0.20500
H1106       H  0.62341105  0.09163732  0.80976254     0.18900
H1107       H  0.66854232  0.07288510  0.77850159     0.18800
H1108       H  0.62953066  0.06567391  0.91396941     0.14700
C1109       C  0.44853541  0.22163494  0.83537145     0.30100
C1110       C  0.44956244  0.19419768  0.84100126    -0.36200
C1111       C  0.43445391  0.18540999  0.86293919     0.16100
C1112       C  0.41955208  0.20254237  0.87842404     0.21900
C1113       C  0.41870139  0.23009289  0.87294017    -0.34300
C1114       C  0.43355279  0.23884253  0.85073803     0.16000
O1115       O  0.46208339  0.23408982  0.81652154    -0.26300
C1116       C  0.45562600  0.25967018  0.81953971     0.05800
C1117       C  0.43774458  0.26384439  0.84046534    -0.31200
O1118       O  0.40570665  0.18983860  0.89694975    -0.23000
C1119       C  0.41159862  0.16411546  0.89330460    -0.03000
C1120       C  0.42972429  0.16029263  0.87253589    -0.17500
H1121       H  0.46126222  0.18060889  0.82898860     0.20500
H1122       H  0.40698955  0.24368696  0.88494117     0.18900
H1123       H  0.43052320  0.28265794  0.84814279     0.18800
H1124       H  0.43702769  0.14159128  0.86467250     0.14700
C1125       C  0.51676919  0.24090466  0.86189172     0.30100
C1126       C  0.51077460  0.22487511  0.88417109    -0.36200
C1127       C  0.52885832  0.20426732  0.88959903     0.16100
C1128       C  0.55146711  0.20029880  0.87430695     0.21900
C1129       C  0.55773172  0.21661308  0.85245840    -0.34300
C1130       C  0.53940725  0.23675642  0.84672527     0.16000
O1131       O  0.50070357  0.25843165  0.85100377    -0.26300
C1132       C  0.51285824  0.26537433  0.82832204     0.05800
C1133       C  0.53737383  0.25279918  0.82492458    -0.31200
O1134       O  0.56391614  0.17824715  0.88058536    -0.23000
C1135       C  0.54932893  0.16765460  0.90020406    -0.03000
C1136       C  0.52727863  0.18312507  0.90693102    -0.17500
H1137       H  0.49231538  0.22709037  0.89526394     0.20500
H1138       H  0.57471516  0.21258799  0.83965782     0.18900
H1139       H  0.55052042  0.25339064  0.80776492     0.18800
H1140       H  0.51137396  0.17839350  0.92084641     0.14700
C1141       C  0.43522306  0.86850279  0.23822952     0.30100
C1142       C  0.43267564  0.89306120  0.22505252    -0.36200
C1143       C  0.42686373  0.89196000  0.19789162     0.16100
C1144       C  0.42363345  0.86828340  0.18450599     0.21900
C1145       C  0.42698871  0.84358946  0.19751893    -0.34300
C1146       C  0.43268639  0.84472853  0.22481373     0.16000
O1147       O  0.44200851  0.86515658  0.26325985    -0.26300
C1148       C  0.44393885  0.83883698  0.26615593     0.05800
C1149       C  0.43813227  0.82511507  0.24285821    -0.31200
O1150       O  0.41514598  0.87200558  0.16000191    -0.23000
C1151       C  0.41314185  0.89850445  0.15744531    -0.03000
C1152       C  0.42079283  0.91180488  0.18041164    -0.17500
H1153       H  0.43487733  0.91182110  0.23536505     0.20500
H1154       H  0.42473330  0.82480998  0.18723829     0.18900
H1155       H  0.44007891  0.80395395  0.23916028     0.18800
H1156       H  0.41943015  0.93293003  0.18451619     0.14700
C1157       C  0.53188131  0.87388081  0.18800358     0.30100
C1158       C  0.53443152  0.85062727  0.20339287    -0.36200
C1159       C  0.52122007  0.85060441  0.22808907     0.16100
C1160       C  0.50663606  0.87210346  0.23702348     0.21900
C1161       C  0.50386312  0.89529949  0.22152000    -0.34300
C1162       C  0.51684156  0.89520654  0.19666638     0.16000
O1163       O  0.54295543  0.87820095  0.16455394    -0.26300
C1164       C  0.53455723  0.90239895  0.15769047     0.05800
C1165       C  0.51814436  0.91399395  0.17691686    -0.31200
O1166       O  0.49470186  0.86726349  0.25996770    -0.23000
C1167       C  0.50146038  0.84227217  0.26588242    -0.03000
C1168       C  0.51822894  0.83098400  0.24680060    -0.17500
H1169       H  0.54572389  0.83361009  0.19643683     0.20500
H1170       H  0.49198770  0.91203854  0.22817961     0.18900
H1171       H  0.50933818  0.93367018  0.17677419     0.18800
H1172       H  0.52539903  0.81067066  0.24584409     0.14700
C1173       C  0.11255551  0.95447262  0.70390624     0.30100
C1174       C  0.13036698  0.94830509  0.72456866    -0.36200
C1175       C  0.13635480  0.96926907  0.74224069     0.16100
C1176       C  0.12466011  0.99398184  0.74010872     0.21900
C1177       C  0.10695795  0.00001185  0.71969756    -0.34300
C1178       C  0.10180368  0.97960207  0.70165334     0.16000
O1179       O  0.10541805  0.93878830  0.68409943    -0.26300
C1180       C  0.09008659  0.95425790  0.66896855     0.05800
C1181       C  0.08737703  0.97991916  0.67899317    -0.31200
O1182       O  0.13492083  0.01157987  0.75631108    -0.23000
C1183       C  0.15452392  0.99889169  0.76853279    -0.03000
C1184       C  0.15574926  0.97197578  0.76116814    -0.17500
H1185       H  0.13995864  0.92905175  0.72588304     0.20500
H1186       H  0.09892688  0.01984966  0.71717623     0.18900
H1187       H  0.07666805  0.99661765  0.67072862     0.18800
H1188       H  0.17058393  0.95740135  0.76661427     0.14700
C1189       C  0.15020275  0.05697722  0.71701886     0.30100
C1190       C  0.14380488  0.05168637  0.69056327    -0.36200
C1191       C  0.12126460  0.06466325  0.68073314     0.16100
C1192       C  0.10609798  0.08207799  0.69565206     0.21900
C1193       C  0.11235042  0.08717289  0.72239007    -0.34300
C1194       C  0.13495686  0.07400244  0.73235187     0.16000
O1195       O  0.16925998  0.04531949  0.73054524    -0.26300
C1196       C  0.16644757  0.05493433  0.75501129     0.05800
C1197       C  0.14556551  0.07314717  0.75726736    -0.31200
O1198       O  0.08791454  0.09442981  0.68125056    -0.23000
C1199       C  0.09128767  0.08441739  0.65689915    -0.03000
C1200       C  0.11160239  0.06561325  0.65570783    -0.17500
H1201       H  0.15560637  0.03827790  0.67844051     0.20500
H1202       H  0.10067582  0.10073724  0.73445549     0.18900
H1203       H  0.13790147  0.08248320  0.77510871     0.18800
H1204       H  0.12018926  0.05648767  0.63815608     0.14700
C1205       C  0.31313754  0.08798505  0.85823443     0.30100
C1206       C  0.30056069  0.08672124  0.83353917    -0.36200
C1207       C  0.27434031  0.07692664  0.83362596     0.16100
C1208       C  0.26139847  0.06871753  0.85649796     0.21900
C1209       C  0.27382989  0.07046302  0.88137751    -0.34300
C1210       C  0.30016338  0.08026610  0.88124809     0.16000
O1211       O  0.33755156  0.09663208  0.86244928    -0.26300
C1212       C  0.34060277  0.09444554  0.88855731     0.05800
C1213       C  0.31787039  0.08431798  0.90133161    -0.31200
O1214       O  0.23805855  0.05758646  0.85159686    -0.23000
C1215       C  0.23574359  0.05912279  0.82528111    -0.03000
C1216       C  0.25773487  0.07116671  0.81311764    -0.17500
H1217       H  0.31075240  0.09251486  0.81539072     0.20500
H1218       H  0.26394413  0.06391757  0.89944238     0.18900
H1219       H  0.31441241  0.08145009  0.92236280     0.18800
H1220       H  0.26192324  0.07311062  0.79210289     0.14700
C1221       C  0.27350576  0.99610822  0.84124286     0.30100
C1222       C  0.30112218  0.99797552  0.84401574    -0.36200
C1223       C  0.31162765  0.98648736  0.86686940     0.16100
C1224       C  0.29629106  0.97327726  0.88559102     0.48700
C1225       C  0.26829246  0.97211122  0.88318481    -0.34300
C1226       C  0.25760053  0.98407513  0.86030120     0.16000
O1227       O  0.25975958  0.00668884  0.82190411    -0.26300
C1228       C  0.23447311  0.00178373  0.82846664     0.05800
C1229       C  0.23182528  0.98757991  0.85216394    -0.31200
O1230       O  0.31109337  0.96033561  0.90304188    -0.23000
C1231       C  0.33611704  0.96575216  0.89536848    -0.03000
C1232       C  0.33736107  0.98262685  0.87348556    -0.17500
H1233       H  0.31365052  0.00749312  0.82914000     0.20500
H1234       H  0.25581855  0.96202552  0.89771127     0.18900
H1235       H  0.21365145  0.98239465  0.86274063     0.18800
H1236       H  0.35482314  0.98842599  0.86202845     0.14700
C1237       C  0.02419088  0.66035271  0.19434285     0.30100
C1238       C  0.02241922  0.66482471  0.22177400    -0.36200
C1239       C  0.01418873  0.69035007  0.22958009     0.16100
C1240       C  0.00829606  0.71021980  0.21165881     0.21900
C1241       C  0.00944040  0.70551272  0.18419735    -0.34300
C1242       C  0.01729000  0.67980461  0.17637673     0.16000
O1243       O  0.03420783  0.63901811  0.18277694    -0.26300
C1244       C  0.03347990  0.64452711  0.15690696     0.05800
C1245       C  0.02233488  0.66946130  0.15182035    -0.31200
O1246       O  0.99978319  0.73217555  0.22337828    -0.23000
C1247       C  0.00014021  0.72621229  0.24912979    -0.03000
C1248       C  0.00896987  0.70048599  0.25411357    -0.17500
H1249       H  0.02749863  0.64957748  0.23604721     0.20500
H1250       H  0.00452564  0.72081708  0.16992950     0.18900
H1251       H  0.02108290  0.67967193  0.13295664     0.18800
H1252       H  0.00928296  0.69008317  0.27292649     0.14700
C1253       C  0.76247043  0.67746566  0.06788029     0.30100
C1254       C  0.77699109  0.65343600  0.06501993    -0.36200
C1255       C  0.80094848  0.65154416  0.07936078     0.16100
C1256       C  0.80959801  0.67183659  0.09552198     0.21900
C1257       C  0.79491326  0.69540155  0.09880723    -0.34300
C1258       C  0.77124132  0.69737725  0.08446514     0.16000
O1259       O  0.74197832  0.68531584  0.05342856    -0.26300
C1260       C  0.73745046  0.71048614  0.06109854     0.05800
C1261       C  0.75491629  0.71875014  0.08065366    -0.31200
O1262       O  0.83288629  0.66682614  0.10617226    -0.23000
C1263       C  0.83974611  0.64289161  0.09694572    -0.03000
C1264       C  0.82049222  0.63230857  0.08008593    -0.17500
H1265       H  0.77080176  0.63794381  0.05149957     0.20500
H1266       H  0.80213506  0.71166801  0.11084763     0.18900
H1267       H  0.75724458  0.73864714  0.08857870     0.18800
H1268       H  0.82081321  0.61336279  0.06986919     0.14700
C1269       C  0.93801409  0.70368091  0.21615444     0.30100
C1270       C  0.94061148  0.69741075  0.18929116    -0.36200
C1271       C  0.93107740  0.67247162  0.18175510     0.16100
C1272       C  0.91931796  0.65491984  0.19942060     0.21900
C1273       C  0.91728640  0.66092295  0.22670426    -0.34300
C1274       C  0.92718077  0.68601521  0.23430557     0.16000
O1275       O  0.94718659  0.72538688  0.22718100    -0.26300
C1276       C  0.94287486  0.72171110  0.25289783     0.05800
C1277       C  0.92999427  0.69769294  0.25866869    -0.31200
O1278       O  0.90851200  0.63439194  0.18722633    -0.23000
C1279       C  0.91347359  0.63894155  0.16147853    -0.03000
C1280       C  0.92813064  0.66205285  0.15710655    -0.17500
H1281       H  0.94929216  0.71124873  0.17513243     0.20500
H1282       H  0.90817422  0.64730532  0.24082260     0.18900
H1283       H  0.92569286  0.68911465  0.27795981     0.18800
H1284       H  0.93314890  0.67133016  0.13830867     0.14700
C1285       C  0.79186272  0.47953867  0.83199096     0.30100
C1286       C  0.81847373  0.48203277  0.84005513    -0.36200
C1287       C  0.82471209  0.46994586  0.86430435     0.16100
C1288       C  0.80590712  0.45663944  0.87950499     0.21900
C1289       C  0.77931900  0.45443910  0.87161593    -0.34300
C1290       C  0.77318313  0.46611542  0.84726707     0.16000
O1291       O  0.78126489  0.49065064  0.81095019    -0.26300
C1292       C  0.75557787  0.48395416  0.81261111     0.05800
C1293       C  0.74941128  0.46854032  0.83473822    -0.31200
O1294       O  0.81626834  0.44495462  0.90025128    -0.23000
C1295       C  0.84216994  0.45056079  0.89850520    -0.03000
C1296       C  0.84855556  0.46652742  0.87667597    -0.17500
H1297       H  0.83325053  0.49254258  0.82820733     0.20500
H1298       H  0.76453917  0.44392890  0.88346265     0.18900
H1299       H  0.72992298  0.46232643  0.84184191     0.18800
H1300       H  0.86813183  0.47267918  0.86977428     0.14700
C1301       C  0.00583284  0.69647114  0.82187253     0.30100
C1302       C  0.00496381  0.67053561  0.83210584    -0.36200
C1303       C  0.01879657  0.66645018  0.85566893     0.16100
C1304       C  0.03246385  0.68652771  0.86835428     0.21900
C1305       C  0.03347963  0.71250290  0.85804617    -0.34300
C1306       C  0.01990627  0.71649442  0.83427929     0.16000
O1307       O  0.99275086  0.70510177  0.80113238    -0.26300
C1308       C  0.99906306  0.73080098  0.79992652     0.05800
C1309       C  0.01599677  0.73903722  0.81988795    -0.31200
O1310       O  0.04511032  0.67785354  0.88936117    -0.23000
C1311       C  0.03956477  0.65184478  0.89011060    -0.03000
C1312       C  0.02301706  0.64374746  0.86974662    -0.17500
H1313       H  0.99414823  0.65467755  0.82243057     0.20500
H1314       H  0.04423789  0.72839536  0.86774714     0.18900
H1315       H  0.02247945  0.75910959  0.82438513     0.18800
H1316       H  0.01665967  0.62370679  0.86499142     0.14700
C1317       C  0.81046086  0.67258937  0.95965486     0.30100
C1318       C  0.78684747  0.68667356  0.95438085    -0.36200
C1319       C  0.77544497  0.70065242  0.97584747     0.16100
C1320       C  0.78669078  0.70087764  0.00063779     0.21900
C1321       C  0.81020557  0.68682553  0.00593115    -0.34300
C1322       C  0.82143601  0.67272185  0.98459312     0.16000
O1323       O  0.82387426  0.65726867  0.94290069    -0.26300
C1324       C  0.84357922  0.64726625  0.95736624     0.05800
C1325       C  0.84303109  0.65634998  0.98345944    -0.31200
O1326       O  0.77207261  0.71387612  0.01816777    -0.23000
C1327       C  0.75073259  0.72182865  0.00482734    -0.03000
C1328       C  0.75204473  0.71449828  0.97814879    -0.17500
H1329       H  0.77762315  0.68615981  0.93510146     0.20500
H1330       H  0.81869715  0.68626668  0.02555912     0.18900
H1331       H  0.85633458  0.65139579  0.99944866     0.18800
H1332       H  0.73723110  0.71756019  0.96303385     0.14700
C1333       C  0.94011971  0.71821561  0.84682170     0.30100
C1334       C  0.94674796  0.70272504  0.86903079    -0.36200
C1335       C  0.92854240  0.68260887  0.87621451     0.16100
C1336       C  0.90497014  0.67857214  0.86301435     0.21900
C1337       C  0.89823618  0.69425768  0.84089218    -0.34300
C1338       C  0.91682289  0.71395416  0.83322672     0.16000
O1339       O  0.95606008  0.73528359  0.83461838    -0.26300
C1340       C  0.94325738  0.74188517  0.81256204     0.05800
C1341       C  0.91834419  0.72963925  0.81097654    -0.31200
O1342       O  0.89090009  0.65860023  0.87313742    -0.23000
C1343       C  0.90584036  0.64940196  0.89283836    -0.03000
C1344       C  0.92958136  0.66355673  0.89553565    -0.17500
H1345       H  0.96548619  0.70528566  0.87915241     0.20500
H1346       H  0.88027353  0.69062292  0.82978357     0.18900
H1347       H  0.90474005  0.72995333  0.79448808     0.18800
H1348       H  0.94502133  0.66071088  0.91006688     0.14700
C1349       C  0.77432993  0.54506300  0.85210972     0.30100
C1350       C  0.78955051  0.53938051  0.87460635    -0.36200
C1351       C  0.81040815  0.55717348  0.87988828     0.16100
C1352       C  0.81562598  0.57922589  0.86426852     0.21900
C1353       C  0.80065250  0.58462434  0.84149720    -0.34300
C1354       C  0.77992396  0.56668276  0.83607057     0.16000
O1355       O  0.75556201  0.52976110  0.84236692    -0.26300
C1356       C  0.74937767  0.54111406  0.81936274     0.05800
C1357       C  0.76345886  0.56468067  0.81473959    -0.31200
O1358       O  0.83512062  0.59401614  0.87361958    -0.23000
C1359       C  0.84277545  0.58116953  0.89534481    -0.03000
C1360       C  0.82827451  0.55787376  0.90008458    -0.17500
H1361       H  0.78570504  0.52198366  0.88681149     0.20500
H1362       H  0.80503122  0.60151396  0.82878214     0.18900
H1363       H  0.76349413  0.57700717  0.79710597     0.18800
H1364       H  0.82975964  0.54425017  0.91666902     0.14700
C1365       C  0.13544550  0.56986501  0.86457756     0.30100
C1366       C  0.14740759  0.56516607  0.83978120    -0.36200
C1367       C  0.17428529  0.55774828  0.84008219     0.16100
C1368       C  0.18839343  0.55471040  0.86319959     0.21900
C1369       C  0.17630096  0.55917329  0.88810163    -0.34300
C1370       C  0.14939313  0.56684867  0.88779782     0.16000
O1371       O  0.11137702  0.57947241  0.86860219    -0.26300
C1372       C  0.10966191  0.58259656  0.89476814     0.05800
C1373       C  0.13266113  0.57478223  0.90781295    -0.31200
O1374       O  0.21308589  0.54663044  0.85872945    -0.23000
C1375       C  0.21483487  0.54487287  0.83238189    -0.03000
C1376       C  0.19129628  0.55157551  0.81982305    -0.17500
H1377       H  0.13666793  0.56775565  0.82147334     0.20500
H1378       H  0.18719172  0.55716122  0.90638580     0.18900
H1379       H  0.13725120  0.57681467  0.92862038     0.18800
H1380       H  0.18691681  0.55038085  0.79889839     0.14700
C1381       C  0.19037050  0.47934613  0.86445821     0.30100
C1382       C  0.17542859  0.47967612  0.88826004    -0.36200
C1383       C  0.15014224  0.46765193  0.88741261     0.16100
C1384       C  0.14033618  0.45641052  0.86458277     0.21900
C1385       C  0.15535791  0.45568955  0.84098293    -0.34300
C1386       C  0.18065220  0.46745351  0.84189694     0.16000
O1387       O  0.21326145  0.49165705  0.86004895    -0.26300
C1388       C  0.21841748  0.48739439  0.83442309     0.05800
C1389       C  0.19889465  0.47218071  0.82220105    -0.31200
O1390       O  0.11643132  0.44623311  0.86801998    -0.23000
C1391       C  0.11067990  0.45056928  0.89348214    -0.03000
C1392       C  0.13098049  0.46392510  0.90664895    -0.17500
H1393       H  0.18277498  0.48915675  0.90599976     0.20500
H1394       H  0.14765943  0.44689723  0.82303775     0.18900
H1395       H  0.19713281  0.46760135  0.80132740     0.18800
H1396       H  0.13190787  0.46931125  0.92738040     0.14700
C1397       C  0.76496186  0.55556852  0.17910481     0.30100
C1398       C  0.77472602  0.56356304  0.15408146    -0.36200
C1399       C  0.80259843  0.56402451  0.15103293     0.16100
C1400       C  0.81946152  0.55676026  0.17120227     0.21900
C1401       C  0.80974905  0.54827613  0.19591520    -0.34300
C1402       C  0.78206968  0.54832503  0.19906956     0.16000
O1403       O  0.73968310  0.55298611  0.18623718    -0.26300
C1404       C  0.74079043  0.54429955  0.21114864     0.05800
C1405       C  0.76665364  0.54113802  0.22014943    -0.31200
O1406       O  0.84452035  0.56194666  0.16560759    -0.23000
C1407       C  0.84405824  0.57268494  0.14151377    -0.03000
C1408       C  0.81846625  0.57407994  0.13116500    -0.17500
H1409       H  0.76155318  0.56965258  0.13836657     0.20500
H1410       H  0.82292669  0.54302346  0.21193162     0.18900
H1411       H  0.77304367  0.53260152  0.23874828     0.18800
H1412       H  0.81215034  0.58409188  0.11330441     0.14700
C1413       C  0.80060772  0.46640964  0.15121728     0.30100
C1414       C  0.77626128  0.48018749  0.14989563    -0.36200
C1415       C  0.76055418  0.47995213  0.17321649     0.16100
C1416       C  0.76837199  0.46723995  0.19614167     0.21900
C1417       C  0.79248531  0.45348361  0.19735180    -0.34300
C1418       C  0.80804946  0.45362616  0.17422177     0.16000
O1419       O  0.81868536  0.46389237  0.13208434    -0.26300
C1420       C  0.83768384  0.44928052  0.14325920     0.05800
C1421       C  0.83209238  0.44239356  0.16932729    -0.31200
O1422       O  0.75217546  0.47165095  0.21637204    -0.23000
C1423       C  0.73358304  0.48744298  0.20649495    -0.03000
C1424       C  0.73745735  0.49280626  0.17952222    -0.17500
H1425       H  0.77024607  0.49073226  0.13221170     0.20500
H1426       H  0.79900423  0.44386291  0.21536129     0.18900
H1427       H  0.84403462  0.43060558  0.18267945     0.18800
H1428       H  0.72627196  0.50624263  0.16708737     0.14700
C1429       C  0.01045227  0.20561203  0.71064380     0.30100
C1430       C  0.01870848  0.20732382  0.68404022    -0.36200
C1431       C  0.02315771  0.18305630  0.67098491     0.16100
C1432       C  0.01935540  0.15862261  0.68303658     0.21900
C1433       C  0.01015787  0.15686633  0.70946578    -0.34300
C1434       C  0.00620941  0.18125981  0.72273744     0.16000
O1435       O  0.00547374  0.22593996  0.72654203    -0.26300
C1436       C  0.99804605  0.21467051  0.74936458     0.05800
C1437       C  0.99804084  0.18682121  0.74806814    -0.31200
O1438       O  0.02756615  0.13862890  0.66796453    -0.23000
C1439       C  0.03675421  0.15043868  0.64598170    -0.03000
C1440       C  0.03408728  0.17809597  0.64672132    -0.17500
H1441       H  0.02229313  0.22632385  0.67442751     0.20500
H1442       H  0.00732631  0.13786050  0.71930637     0.18900
H1443       H  0.99134197  0.17282036  0.76309536     0.18800
H1444       H  0.04094568  0.19268924  0.63234995     0.14700
C1445       C  0.92635019  0.17687165  0.67179030     0.30100
C1446       C  0.93239343  0.20190213  0.68234872    -0.36200
C1447       C  0.93417000  0.20331682  0.70993209     0.16100
C1448       C  0.93128536  0.18144110  0.72628363     0.21900
C1449       C  0.92532836  0.15606628  0.71561304    -0.34300
C1450       C  0.92275974  0.15476797  0.68774626     0.16000
O1451       O  0.92109749  0.17218076  0.64677605    -0.26300
C1452       C  0.91388258  0.14666402  0.64613393     0.05800
C1453       C  0.91477608  0.13460150  0.67113091    -0.31200
O1454       O  0.93599598  0.18739946  0.75145436    -0.23000
C1455       C  0.94118806  0.21358425  0.75104685    -0.03000
C1456       C  0.94012168  0.22433775  0.72568988    -0.17500
H1457       H  0.93486967  0.21932999  0.66986840     0.20500
H1458       H  0.92258737  0.13870163  0.72812035     0.18900
H1459       H  0.90822239  0.11475227  0.67661720     0.18800
H1460       H  0.94567599  0.24428024  0.71947573     0.14700
C1461       C  0.91821718  0.34101271  0.88673566     0.30100
C1462       C  0.91962219  0.31299024  0.88400612    -0.36200
C1463       C  0.92641339  0.30333006  0.85845952     0.16100
C1464       C  0.93112249  0.32017067  0.83724186     0.21900
C1465       C  0.93009085  0.34786668  0.84009012    -0.34300
C1466       C  0.92391844  0.35739299  0.86544969     0.16000
O1467       O  0.91022876  0.35472224  0.90791475    -0.26300
C1468       C  0.91132887  0.38015837  0.89993393     0.05800
C1469       C  0.92027896  0.38273724  0.87385498    -0.31200
O1470       O  0.93908675  0.30752938  0.81571323    -0.23000
C1471       C  0.93958377  0.28199959  0.82278299    -0.03000
C1472       C  0.93182705  0.27812646  0.84926015    -0.17500
H1473       H  0.91573555  0.29970693  0.90054209     0.20500
H1474       H  0.93422660  0.36117858  0.82363037     0.18900
H1475       H  0.92141064  0.40068997  0.86194137     0.18800
H1476       H  0.93270311  0.25987465  0.86068472     0.14700
C1477       C  0.02668576  0.36353019  0.85457736     0.30100
C1478       C  0.02942291  0.34942226  0.83056814    -0.36200
C1479       C  0.01621665  0.32467620  0.82925954     0.16100
C1480       C  0.00132705  0.31474469  0.85018329     0.21900
C1481       C  0.99824139  0.32900348  0.87397610    -0.34300
C1482       C  0.01140448  0.35364643  0.87527278     0.16000
O1483       O  0.04009525  0.38509589  0.86128358    -0.26300
C1484       C  0.03338078  0.38917331  0.88661413     0.05800
C1485       C  0.01506742  0.37044841  0.89615484    -0.31200
O1486       O  0.98981683  0.29186285  0.84454849    -0.23000
C1487       C  0.99696171  0.28684813  0.81951351    -0.03000
C1488       C  0.01385095  0.30652079  0.80906694    -0.17500
H1489       H  0.04159258  0.35690203  0.81432025     0.20500
H1490       H  0.98664773  0.32120077  0.89049134     0.18900
H1491       H  0.00817506  0.36772465  0.91640297     0.18800
H1492       H  0.02152527  0.30824127  0.78899167     0.14700
C1493       C  0.64346932  0.15103736  0.07877060     0.30100
C1494       C  0.67135455  0.15454315  0.07903648    -0.36200
C1495       C  0.68100608  0.17922440  0.06955873     0.16100
C1496       C  0.66427878  0.19888126  0.06039133     0.21900
C1497       C  0.63664351  0.19511207  0.05938961    -0.34300
C1498       C  0.62706439  0.17060380  0.06884627     0.16000
O1499       O  0.62983036  0.13107809  0.08957877    -0.26300
C1500       C  0.60442274  0.13789783  0.08621074     0.05800
C1501       C  0.60164088  0.16216165  0.07313359    -0.31200
O1502       O  0.67724813  0.22020539  0.05213397    -0.23000
C1503       C  0.70278432  0.21446702  0.05602419    -0.03000
C1504       C  0.70638736  0.18909923  0.06676850    -0.17500
H1505       H  0.68450698  0.13944977  0.08684052     0.20500
H1506       H  0.62344863  0.21050103  0.05222553     0.18900
H1507       H  0.58347477  0.17319491  0.06971858     0.18800
H1508       H  0.72495963  0.17878938  0.07017661     0.14700
C1509       C  0.63890705  0.15979061  0.98053377     0.30100
C1510       C  0.66556915  0.15958510  0.98840083    -0.36200
C1511       C  0.67784122  0.18449024  0.99082153     0.16100
C1512       C  0.66464258  0.20817601  0.98664918     0.21900
C1513       C  0.63777463  0.20839139  0.97877975    -0.34300
C1514       C  0.62554039  0.18328821  0.97577400     0.16000
O1515       O  0.62536305  0.13871651  0.97314776    -0.26300
C1516       C  0.60290643  0.14846675  0.96332948     0.05800
C1517       C  0.60163884  0.17618553  0.96488411    -0.31200
O1518       O  0.67965329  0.22914600  0.99211055    -0.23000
C1519       C  0.70284546  0.21861315  0.99942335    -0.03000
C1520       C  0.70284311  0.19091713  0.99863527    -0.17500
H1521       H  0.67631549  0.14117088  0.99148292     0.20500
H1522       H  0.62733009  0.22678642  0.97477206     0.18900
H1523       H  0.58722309  0.18922544  0.95575884     0.18800
H1524       H  0.71819720  0.17749990  0.00543482     0.14700
C1525       C  0.84100271  0.34144734  0.07770701     0.30100
C1526       C  0.83997393  0.31682848  0.06446823    -0.36200
C1527       C  0.81555919  0.30302381  0.06588692     0.16100
C1528       C  0.79343833  0.31293945  0.07898818     0.21900
C1529       C  0.79448527  0.33751495  0.09234812    -0.34300
C1530       C  0.81903094  0.35113421  0.09126620     0.16000
O1531       O  0.86187806  0.35756224  0.07908807    -0.26300
C1532       C  0.85325089  0.37775030  0.09396055     0.05800
C1533       C  0.82674149  0.37481179  0.10205187    -0.31200
O1534       O  0.77191806  0.29814388  0.07533756    -0.23000
C1535       C  0.78031708  0.27831928  0.05981077    -0.03000
C1536       C  0.80748039  0.28016744  0.05375708    -0.17500
H1537       H  0.85693250  0.30913735  0.05347697     0.20500
H1538       H  0.77720549  0.34571227  0.10243489     0.18900
H1539       H  0.81496039  0.38816754  0.11427070     0.18800
H1540       H  0.81893293  0.26793967  0.04014405     0.14700
C1541       C  0.82132837  0.36062553  0.98400175     0.30100
C1542       C  0.79620486  0.35390105  0.99455568    -0.36200
C1543       C  0.79032630  0.32663008  0.99595093     0.16100
C1544       C  0.80792109  0.30720486  0.98755783     0.21900
C1545       C  0.83315257  0.31398427  0.97705286    -0.34300
C1546       C  0.83916986  0.34136189  0.97582536     0.16000
O1547       O  0.82973493  0.38489926  0.97855206    -0.26300
C1548       C  0.85351746  0.38143716  0.96702510     0.05800
C1549       C  0.86057638  0.35467087  0.96506192    -0.31200
O1550       O  0.79872037  0.28286748  0.99198004    -0.23000
C1551       C  0.77490387  0.28689235  0.00319880    -0.03000
C1552       C  0.76863962  0.31370067  0.00608621    -0.17500
H1553       H  0.78206819  0.36892977  0.00090701     0.20500
H1554       H  0.84709068  0.29897148  0.97026749     0.18900
H1555       H  0.87743518  0.34620071  0.95451314     0.18800
H1556       H  0.75137577  0.32229397  0.01586913     0.14700
C1557       C  0.17830583  0.69109693  0.05400213     0.30100
C1558       C  0.16733864  0.66516677  0.05465948    -0.36200
C1559       C  0.14335509  0.66207906  0.06915375     0.16100
C1560       C  0.13121557  0.68317777  0.08189688     0.21900
C1561       C  0.14227135  0.70887562  0.08149610    -0.34300
C1562       C  0.16618621  0.71189754  0.06725730     0.16000
O1563       O  0.19936132  0.69905518  0.04010499    -0.26300
C1564       C  0.20092211  0.72519974  0.04488789     0.05800
C1565       C  0.18084192  0.73418348  0.06180080    -0.31200
O1566       O  0.10924514  0.67613114  0.09448622    -0.23000
C1567       C  0.10700000  0.65003267  0.09015874    -0.03000
C1568       C  0.12768347  0.64011968  0.07430271    -0.17500
H1569       H  0.17662481  0.64869729  0.04427899     0.20500
H1570       H  0.13272284  0.72545416  0.09147071     0.18900
H1571       H  0.17644670  0.75452831  0.06744653     0.18800
H1572       H  0.13113958  0.61974668  0.06817866     0.14700
C1573       C  0.14563831  0.65697482  0.96710793     0.30100
C1574       C  0.17297861  0.66310841  0.96544751    -0.36200
C1575       C  0.18043322  0.68822001  0.97523757     0.16100
C1576       C  0.16218716  0.70574117  0.98609057     0.21900
C1577       C  0.13522606  0.69923458  0.98873034    -0.34300
C1578       C  0.12779699  0.67438766  0.97882119     0.16000
O1579       O  0.13355034  0.63695044  0.95522927    -0.26300
C1580       C  0.10777135  0.64160541  0.95967181     0.05800
C1581       C  0.10314780  0.66437310  0.97466748    -0.31200
O1582       O  0.17313812  0.72806579  0.99395382    -0.23000
C1583       C  0.19884067  0.72508874  0.98818681    -0.03000
C1584       C  0.20469500  0.70058989  0.97654070    -0.17500
H1585       H  0.18717470  0.64985387  0.95601066     0.20500
H1586       H  0.12085555  0.71306217  0.99702335     0.18900
H1587       H  0.08425723  0.67404389  0.97870448     0.18800
H1588       H  0.22406466  0.69241292  0.97160037     0.14700
C1589       C  0.28378745  0.83629926  0.05197020     0.30100
C1590       C  0.28909920  0.86337735  0.05674132    -0.36200
C1591       C  0.31501287  0.86953098  0.06500351     0.16100
C1592       C  0.33428712  0.85028343  0.06836564     0.21900
C1593       C  0.32911436  0.82328261  0.06325689    -0.34300
C1594       C  0.30322392  0.81716330  0.05508674     0.16000
O1595       O  0.26118022  0.82617239  0.04339833    -0.26300
C1596       C  0.26623933  0.80022608  0.04110083     0.05800
C1597       C  0.29203930  0.79347871  0.04812750    -0.31200
O1598       O  0.35625691  0.85999751  0.07860202    -0.23000
C1599       C  0.35120622  0.88588010  0.08169443    -0.03000
C1600       C  0.32590649  0.89303456  0.07328517    -0.17500
H1601       H  0.27399031  0.87854358  0.05446572     0.20500
H1602       H  0.34407395  0.80804163  0.06600890     0.18900
H1603       H  0.30154481  0.77416839  0.04680439     0.18800
H1604       H  0.31613448  0.91215081  0.07528593     0.14700
C1605       C  0.28118171  0.83795149  0.97518032     0.30100
C1606       C  0.28907877  0.86485833  0.97567696    -0.36200
C1607       C  0.31115710  0.87156432  0.95970403     0.16100
C1608       C  0.32447741  0.85291856  0.94452087     0.21900
C1609       C  0.31645821  0.82611857  0.94381268    -0.34300
C1610       C  0.29433257  0.81946410  0.95964647     0.16000
O1611       O  0.26223404  0.82703108  0.98984452    -0.26300
C1612       C  0.26315411  0.80123849  0.98365376     0.05800
C1613       C  0.28257431  0.79539470  0.96467722    -0.31200
O1614       O  0.34499307  0.86318166  0.93175852    -0.23000
C1615       C  0.34501876  0.88880661  0.93870767    -0.03000
C1616       C  0.32422690  0.89528514  0.95597999    -0.17500
H1617       H  0.27908927  0.87937878  0.98812052     0.20500
H1618       H  0.32706112  0.81140463  0.93211241     0.18900
H1619       H  0.28839089  0.77603281  0.95717600     0.18800
H1620       H  0.31937837  0.91450215  0.96443737     0.14700
C1621       C  0.16439057  0.49015069  0.21352833     0.30100
C1622       C  0.13862151  0.49310051  0.20341976    -0.36200
C1623       C  0.13243687  0.47704677  0.18162878     0.16100
C1624       C  0.15028613  0.45910559  0.17084643     0.21900
C1625       C  0.17585178  0.45575736  0.18130572    -0.34300
C1626       C  0.18216898  0.47200381  0.20291196     0.16000
O1627       O  0.17541151  0.50554352  0.23141102    -0.26300
C1628       C  0.20057251  0.49725066  0.23230208     0.05800
C1629       C  0.20583797  0.47602712  0.21536079    -0.31200
O1630       O  0.14016609  0.44562759  0.15100537    -0.23000
C1631       C  0.11545752  0.45497807  0.14889714    -0.03000
C1632       C  0.10956862  0.47467961  0.16747771    -0.17500
H1633       H  0.12471597  0.50755327  0.21141588     0.20500
H1634       H  0.19003847  0.44189833  0.17276751     0.18900
H1635       H  0.22488641  0.46689228  0.21088989     0.18800
H1636       H  0.09071195  0.48457173  0.17100579     0.14700
C1637       C  0.18252518  0.55822181  0.18714790     0.30100
C1638       C  0.16932802  0.55345032  0.16309572    -0.36200
C1639       C  0.14799797  0.57055382  0.15740621     0.16100
C1640       C  0.14040759  0.59064238  0.17452329     0.21900
C1641       C  0.15376761  0.59567632  0.19817175    -0.34300
C1642       C  0.17506886  0.57882981  0.20369804     0.16000
O1643       O  0.20101385  0.54310154  0.19775803    -0.26300
C1644       C  0.20547951  0.55423810  0.22130243     0.05800
C1645       C  0.19014885  0.57682723  0.22585967    -0.31200
O1646       O  0.11848031  0.60239557  0.16725312    -0.23000
C1647       C  0.11155476  0.58997216  0.14511135    -0.03000
C1648       C  0.12948398  0.57016250  0.13754294    -0.17500
H1649       H  0.17448087  0.53679541  0.15043787     0.20500
H1650       H  0.14713031  0.61088232  0.21193719     0.18900
H1651       H  0.18876301  0.58867464  0.24374164     0.18800
H1652       H  0.12803328  0.55637680  0.12113886     0.14700
C1653       C  0.16657799  0.20414786  0.54294991     0.30100
C1654       C  0.13991097  0.19611036  0.54107584    -0.36200
C1655       C  0.13239524  0.17436688  0.55690980     0.16100
C1656       C  0.14993977  0.16156324  0.57348626     0.21900
C1657       C  0.17674356  0.16933455  0.57501064    -0.34300
C1658       C  0.18425130  0.19108811  0.55917108     0.16000
O1659       O  0.17785615  0.22373391  0.52964169    -0.26300
C1660       C  0.20317701  0.22306475  0.53704279     0.05800
C1661       C  0.20829422  0.20334975  0.55572706    -0.31200
O1662       O  0.13814900  0.14335397  0.58829118    -0.23000
C1663       C  0.11269932  0.14446260  0.58119726    -0.03000
C1664       C  0.10804318  0.16308635  0.56133098    -0.17500
H1665       H  0.12595014  0.20632640  0.52842080     0.20500
H1666       H  0.19060297  0.15946438  0.58803554     0.18900
H1667       H  0.22712168  0.19817041  0.56461384     0.18800
H1668       H  0.08915579  0.16875990  0.55287472     0.14700
C1669       C  0.16694542  0.21925757  0.46788520     0.30100
C1670       C  0.13934473  0.21564379  0.46473895    -0.36200
C1671       C  0.13085249  0.18935403  0.46008839     0.16100
C1672       C  0.14832330  0.16832106  0.45810785     0.21900
C1673       C  0.17585652  0.17201387  0.46036177    -0.34300
C1674       C  0.18432790  0.19808641  0.46544978     0.16000
O1675       O  0.17878617  0.24092180  0.47694280    -0.26300
C1676       C  0.20408223  0.23353604  0.47997026     0.05800
C1677       C  0.20861393  0.20717371  0.47290699    -0.31200
O1678       O  0.13624948  0.14547195  0.45381591    -0.23000
C1679       C  0.11043505  0.15155112  0.45288848    -0.03000
C1680       C  0.10601147  0.17879632  0.45700326    -0.17500
H1681       H  0.12537184  0.23188182  0.46719885     0.20500
H1682       H  0.18963901  0.15546565  0.45938813     0.18900
H1683       H  0.22641887  0.19552231  0.47615193     0.18800
H1684       H  0.08740666  0.18962639  0.45647866     0.14700
C1685       C  0.50460224  0.21733580  0.19614640     0.30100
C1686       C  0.50219106  0.20591151  0.17092017    -0.36200
C1687       C  0.51420508  0.18093709  0.16747563     0.16100
C1688       C  0.52771445  0.16811273  0.18743685     0.21900
C1689       C  0.53000919  0.17947985  0.21271697    -0.34300
C1690       C  0.51809409  0.20451260  0.21613403     0.16000
O1691       O  0.49353832  0.23974275  0.20419579    -0.26300
C1692       C  0.50035887  0.24150382  0.22956955     0.05800
C1693       C  0.51568106  0.22017318  0.23805449    -0.31200
O1694       O  0.53902963  0.14585718  0.17929509    -0.23000
C1695       C  0.53255518  0.14423493  0.15379472    -0.03000
C1696       C  0.51696100  0.16550285  0.14545724    -0.17500
H1697       H  0.49164864  0.21578521  0.15510285     0.20500
H1698       H  0.54057418  0.16962392  0.22853115     0.18900
H1699       H  0.52208205  0.21576754  0.25800164     0.18800
H1700       H  0.51053586  0.16998991  0.12553610     0.14700
C1701       C  0.41702491  0.18651671  0.16963040     0.30100
C1702       C  0.41604729  0.21333977  0.17721162    -0.36200
C1703       C  0.42651765  0.21939314  0.20203422     0.16100
C1704       C  0.43761694  0.20038437  0.21827106     0.21900
C1705       C  0.43859541  0.17332184  0.21065626    -0.34300
C1706       C  0.42782092  0.16719951  0.18569321     0.16000
O1707       O  0.40665235  0.17668175  0.14797306    -0.26300
C1708       C  0.41043742  0.15049227  0.14974908     0.05800
C1709       C  0.42403656  0.14340759  0.17277774    -0.31200
O1710       O  0.44842792  0.21107434  0.23953413    -0.23000
C1711       C  0.44372057  0.23714785  0.23701470    -0.03000
C1712       C  0.43010070  0.24339760  0.21404321    -0.17500
H1713       H  0.40756902  0.22849133  0.16456943     0.20500
H1714       H  0.44732503  0.15821553  0.22317714     0.18900
H1715       H  0.42842161  0.12356384  0.17993895     0.18800
H1716       H  0.42592586  0.26297629  0.20606429     0.14700
C1717       C  0.01020260  0.31437192  0.19131637     0.30100
C1718       C  0.00594625  0.33021067  0.16869484    -0.36200
C1719       C  0.02547351  0.34957872  0.16297499     0.16100
C1720       C  0.04764457  0.35295338  0.17852411     0.21900
C1721       C  0.05203608  0.33701709  0.20098398    -0.34300
C1722       C  0.03245641  0.31781386  0.20675392     0.16000
O1723       O  0.99321147  0.29706815  0.20176024    -0.26300
C1724       C  0.00464376  0.28938352  0.22424382     0.05800
C1725       C  0.02926083  0.30145421  0.22820540    -0.31200
O1726       O  0.06225372  0.37345284  0.17092019    -0.23000
C1727       C  0.04942839  0.38354243  0.15017286    -0.03000
C1728       C  0.02650000  0.36927201  0.14408250    -0.17500
H1729       H  0.98804488  0.32836710  0.15707688     0.20500
H1730       H  0.06896241  0.34017070  0.21372426     0.18900
H1731       H  0.04176483  0.30014427  0.24550118     0.18800
H1732       H  0.01206379  0.37358095  0.12890645     0.14700
C1733       C  0.92139940  0.21225117  0.33066562     0.30100
C1734       C  0.89949417  0.19587977  0.33661459    -0.36200
C1735       C  0.90173882  0.17987308  0.35928517     0.16100
C1736       C  0.92381576  0.18008333  0.37536862     0.21900
C1737       C  0.94527749  0.19742131  0.37002054    -0.34300
C1738       C  0.94321249  0.21322553  0.34707864     0.16000
O1739       O  0.92536392  0.22516565  0.30817654    -0.26300
C1740       C  0.95009635  0.23442957  0.31002357     0.05800
C1741       C  0.96187675  0.22835523  0.33419362    -0.31200
O1742       O  0.92334008  0.16056373  0.39313512    -0.23000
C1743       C  0.90068726  0.14770871  0.38822807    -0.03000
C1744       C  0.88630802  0.15927505  0.36771021    -0.17500
H1745       H  0.88283092  0.19408537  0.32328812     0.20500
H1746       H  0.96324514  0.19704165  0.38167291     0.18900
H1747       H  0.98209084  0.23240899  0.34030350     0.18800
H1748       H  0.86803153  0.15222092  0.35889436     0.14700
C1749       C  0.90822366  0.36403635  0.19086783     0.30100
C1750       C  0.90163878  0.34122976  0.20583772    -0.36200
C1751       C  0.92215120  0.33057241  0.22126954     0.16100
C1752       C  0.94706847  0.34218338  0.22244279     0.21900
C1753       C  0.95338707  0.36534779  0.20806346    -0.34300
C1754       C  0.93322339  0.37544168  0.19195663     0.16000
O1755       O  0.89311746  0.37543086  0.17295483    -0.26300
C1756       C  0.90857526  0.39431702  0.16227006     0.05800
C1757       C  0.93387206  0.39521135  0.17332855    -0.31200
O1758       O  0.96428243  0.32730274  0.23512132    -0.23000
C1759       C  0.95059937  0.30554714  0.24183961    -0.03000
C1760       C  0.92398171  0.30670615  0.23426479    -0.17500
H1761       H  0.88248220  0.33145756  0.20411442     0.20500
H1762       H  0.97329427  0.37371548  0.20792074     0.18900
H1763       H  0.95056502  0.40787314  0.16791188     0.18800
H1764       H  0.90895051  0.29126001  0.23596662     0.14700
C1765       C  0.03112707  0.19585604  0.31426793     0.30100
C1766       C  0.05173877  0.19109307  0.33200178    -0.36200
C1767       C  0.04888765  0.16853062  0.34810451     0.16100
C1768       C  0.02750376  0.15125280  0.34689406     0.21900
C1769       C  0.00738863  0.15529485  0.32805534    -0.34300
C1770       C  0.00994228  0.17837670  0.31215547     0.16000
O1771       O  0.02751570  0.21830966  0.30117894    -0.26300
C1772       C  0.00361002  0.21550104  0.29050774     0.05800
C1773       C  0.99202079  0.19072130  0.29610401    -0.31200
O1774       O  0.02688965  0.13415085  0.36707070    -0.23000
C1775       C  0.04807329  0.14096098  0.38131968    -0.03000
C1776       C  0.06270588  0.16171084  0.36979865    -0.17500
H1777       H  0.06765292  0.20538127  0.33484437     0.20500
H1778       H  0.98980881  0.14277794  0.32749482     0.18900
H1779       H  0.97213369  0.18400649  0.29133440     0.18800
H1780       H  0.08011092  0.17181551  0.37738102     0.14700
C1781       C  0.29877672  0.96221078  0.14720381     0.30100
C1782       C  0.27199013  0.95697498  0.15425759    -0.36200
C1783       C  0.26231913  0.96979910  0.17725187     0.16100
C1784       C  0.27802019  0.98659574  0.19207084     0.21900
C1785       C  0.30446053  0.99216938  0.18481277    -0.34300
C1786       C  0.31402454  0.97951715  0.16191965     0.16000
O1787       O  0.31316559  0.94924588  0.12926892    -0.26300
C1788       C  0.33786596  0.95842578  0.13260150     0.05800
C1789       C  0.33929614  0.97784229  0.15218615    -0.31200
O1790       O  0.26499811  0.99734411  0.21212165    -0.23000
C1791       C  0.24045634  0.98748437  0.21036502    -0.03000
C1792       C  0.23759319  0.96998785  0.18911905    -0.17500
H1793       H  0.25984653  0.94319376  0.14313875     0.20500
H1794       H  0.31690162  0.00515067  0.19653922     0.18900
H1795       H  0.35707301  0.98637510  0.16073057     0.18800
H1796       H  0.21954296  0.96051398  0.18227908     0.14700
C1797       C  0.12797494  0.08217778  0.34853240     0.30100
C1798       C  0.14916609  0.08549937  0.33052494    -0.36200
C1799       C  0.15124705  0.06644049  0.31044478     0.16100
C1800       C  0.13406979  0.04506729  0.30850798     0.21900
C1801       C  0.11257645  0.04180207  0.32657384    -0.34300
C1802       C  0.11004797  0.06142646  0.34641260     0.16000
O1803       O  0.12307396  0.09743519  0.36910609    -0.26300
C1804       C  0.10147338  0.08677474  0.38046721     0.05800
C1805       C  0.09216909  0.06440598  0.36704437    -0.31200
O1806       O  0.14135124  0.02848667  0.28938791    -0.23000
C1807       C  0.16336166  0.03958427  0.27890433    -0.03000
C1808       C  0.17007623  0.06346160  0.29107305    -0.17500
H1809       H  0.16334415  0.10167602  0.33231119     0.20500
H1810       H  0.09911962  0.02495395  0.32552414     0.18900
H1811       H  0.07534205  0.05181411  0.37218335     0.18800
H1812       H  0.18757821  0.07568971  0.28760965     0.14700
C1813       C  0.25875252  0.05158709  0.17449925     0.30100
C1814       C  0.27548689  0.04893637  0.15197604    -0.36200
C1815       C  0.29760947  0.06622685  0.15057728     0.16100
C1816       C  0.30276711  0.08461537  0.17015779     0.21900
C1817       C  0.28609387  0.08728933  0.19251265    -0.34300
C1818       C  0.26403185  0.07017839  0.19384406     0.16000
O1819       O  0.23874697  0.03571931  0.18126760    -0.26300
C1820       C  0.23113259  0.04417981  0.20528941     0.05800
C1821       C  0.24600605  0.06588734  0.21386669    -0.31200
O1822       O  0.32502174  0.09786413  0.16581210    -0.23000
C1823       C  0.33454565  0.08808899  0.14307587    -0.03000
C1824       C  0.31818452  0.06838055  0.13248007    -0.17500
H1825       H  0.27208010  0.03376061  0.13715993     0.20500
H1826       H  0.29055743  0.10117927  0.20825688     0.18900
H1827       H  0.24549580  0.07523537  0.23319458     0.18800
H1828       H  0.32130110  0.05693615  0.11454715     0.14700
C1829       C  0.13749879  0.96342724  0.36416138     0.30100
C1830       C  0.15586429  0.98217817  0.35438869    -0.36200
C1831       C  0.16503528  0.97820133  0.32834352     0.16100
C1832       C  0.15620743  0.95773331  0.31243004     0.21900
C1833       C  0.13855121  0.93827916  0.32257526    -0.34300
C1834       C  0.12978281  0.94193740  0.34896909     0.16000
O1835       O  0.12531888  0.96417600  0.38751856    -0.26300
C1836       C  0.10994175  0.94255436  0.38758750     0.05800
C1837       C  0.11204319  0.92787641  0.36420872    -0.31200
O1838       O  0.16407824  0.96062554  0.28738023    -0.23000
C1839       C  0.17822325  0.98318688  0.28751137    -0.03000
C1840       C  0.18039700  0.99411993  0.31274522    -0.17500
H1841       H  0.16180034  0.99933011  0.36591822     0.20500
H1842       H  0.13122080  0.92213893  0.31043408     0.18900
H1843       H  0.10133816  0.90993020  0.35891976     0.18800
H1844       H  0.18968175  0.01276727  0.31827329     0.14700
C1845       C  0.13630732  0.35980702  0.95966084     0.30100
C1846       C  0.16016816  0.34501157  0.95755771    -0.36200
C1847       C  0.16082591  0.32082358  0.97186220     0.16100
C1848       C  0.13956026  0.31204755  0.98715342     0.21900
C1849       C  0.11612260  0.32685571  0.98949811    -0.34300
C1850       C  0.11546896  0.35083110  0.97537452     0.16000
O1851       O  0.12974350  0.38131899  0.94584449    -0.26300
C1852       C  0.10458203  0.38632895  0.95339272     0.05800
C1853       C  0.09494892  0.36789436  0.97169839    -0.31200
O1854       O  0.14444956  0.28957325  0.99959771    -0.23000
C1855       C  0.16922757  0.28355254  0.99228664    -0.03000
C1856       C  0.18043906  0.30217944  0.97486631    -0.17500
H1857       H  0.17674502  0.35153330  0.94522431     0.20500
H1858       H  0.09935184  0.31998279  0.00137115     0.18900
H1859       H  0.07464254  0.36560436  0.97884763     0.18800
H1860       H  0.20065790  0.30283231  0.96716924     0.14700
C1861       C  0.27699340  0.20037618  0.05528914     0.30100
C1862       C  0.30477074  0.19944424  0.05679698    -0.36200
C1863       C  0.31555111  0.17576854  0.06659825     0.16100
C1864       C  0.30022925  0.15416510  0.07424251     0.21900
C1865       C  0.27218653  0.15510400  0.07274317    -0.34300
C1866       C  0.26127504  0.17911374  0.06320761     0.16000
O1867       O  0.26311341  0.22027459  0.04562128    -0.26300
C1868       C  0.23799576  0.21208393  0.04769144     0.05800
C1869       C  0.23550690  0.18659632  0.05858395    -0.31200
O1870       O  0.31482226  0.13453315  0.08400768    -0.23000
C1871       C  0.33975572  0.14382360  0.08249649    -0.03000
C1872       C  0.34119577  0.16939653  0.07178846    -0.17500
H1873       H  0.31716433  0.21613740  0.05079894     0.20500
H1874       H  0.25977606  0.13846443  0.07884144     0.18900
H1875       H  0.21761261  0.17467419  0.06079870     0.18800
H1876       H  0.35853891  0.18212246  0.06957051     0.14700
C1877       C  0.15667100  0.32303851  0.05494774     0.30100
C1878       C  0.15227590  0.35042086  0.05222546    -0.36200
C1879       C  0.12859848  0.36016390  0.06334949     0.16100
C1880       C  0.11057466  0.34428392  0.07692858     0.21900
C1881       C  0.11472466  0.31657595  0.07923807    -0.34300
C1882       C  0.13844456  0.30667554  0.06769313     0.16000
O1883       O  0.17649030  0.30977704  0.04398012    -0.26300
C1884       C  0.17113601  0.28439071  0.04950238     0.05800
C1885       C  0.14776493  0.28119808  0.06448509    -0.31200
O1886       O  0.09182678  0.35847719  0.08900924    -0.23000
C1887       C  0.09793902  0.38364511  0.08274578    -0.03000
C1888       C  0.12023682  0.38566204  0.06628141    -0.17500
H1889       H  0.16641975  0.36329927  0.04206587     0.20500
H1890       H  0.10069849  0.30374312  0.08960967     0.18900
H1891       H  0.13784975  0.26277418  0.06994560     0.18800
H1892       H  0.13074840  0.40359811  0.06027887     0.14700
C1893       C  0.30022764  0.16589959  0.94807803     0.30100
C1894       C  0.28209442  0.18646885  0.94278928    -0.36200
C1895       C  0.26237775  0.19084917  0.96218192     0.16100
C1896       C  0.26040488  0.17548167  0.98478460     0.21900
C1897       C  0.27852003  0.15487577  0.99006965    -0.34300
C1898       C  0.29856415  0.15082239  0.97094977     0.16000
O1899       O  0.32182485  0.16069243  0.93415550    -0.26300
C1900       C  0.33431471  0.14211793  0.94817014     0.05800
C1901       C  0.32071262  0.13492150  0.97125422    -0.31200
O1902       O  0.24243631  0.18460668  0.00152453    -0.23000
C1903       C  0.23307884  0.20660667  0.99020486    -0.03000
C1904       C  0.24449072  0.21121644  0.96523005    -0.17500
H1905       H  0.28427460  0.19921542  0.92555682     0.20500
H1906       H  0.27796234  0.14391409  0.00857660     0.18900
H1907       H  0.32713996  0.12157018  0.98678998     0.18800
H1908       H  0.24191053  0.22829102  0.95237196     0.14700
C1909       C  0.52312982  0.74133582  0.67486167     0.30100
C1910       C  0.52100476  0.72602936  0.65157103    -0.36200
C1911       C  0.53154688  0.70010455  0.65271595     0.16100
C1912       C  0.54300575  0.69013764  0.67536648     0.21900
C1913       C  0.54508820  0.70530650  0.69850505    -0.34300
C1914       C  0.53504512  0.73120920  0.69721409     0.16000
O1915       O  0.51255580  0.76502801  0.67914755    -0.26300
C1916       C  0.51815819  0.77020064  0.70441885     0.05800
C1917       C  0.53238958  0.74994161  0.71649913    -0.31200
O1918       O  0.55220819  0.66592598  0.67219562    -0.23000
C1919       C  0.54683914  0.65992858  0.64714028    -0.03000
C1920       C  0.53380361  0.68047301  0.63392560    -0.17500
H1921       H  0.51148836  0.73365772  0.63398324     0.20500
H1922       H  0.55388301  0.69737549  0.71634749     0.18900
H1923       H  0.53735874  0.74804377  0.73724428     0.18800
H1924       H  0.52786129  0.68129469  0.61339122     0.14700
C1925       C  0.64152893  0.57755917  0.67721902     0.30100
C1926       C  0.66717356  0.57845009  0.68796488    -0.36200
C1927       C  0.67084620  0.56360823  0.71116056     0.16100
C1928       C  0.65069892  0.54863737  0.72269357     0.21900
C1929       C  0.62491114  0.54818621  0.71227389    -0.34300
C1930       C  0.62117503  0.56327872  0.68921595     0.16000
O1931       O  0.63369284  0.59033427  0.65591623    -0.26300
C1932       C  0.60792445  0.58433150  0.65409775     0.05800
C1933       C  0.59897370  0.56764381  0.67448731    -0.31200
O1934       O  0.65896984  0.53465582  0.74303741    -0.23000
C1935       C  0.68459457  0.54107910  0.74487195    -0.03000
C1936       C  0.69313807  0.55921346  0.72570723    -0.17500
H1937       H  0.68316979  0.58979035  0.67875969     0.20500
H1938       H  0.60901290  0.53657926  0.72131406     0.18900
H1939       H  0.57883718  0.56084275  0.67851167     0.18800
H1940       H  0.71314248  0.56655773  0.72199073     0.14700
C1941       C  0.61424851  0.68850190  0.56904569     0.30100
C1942       C  0.61952635  0.71601878  0.56912813    -0.36200
C1943       C  0.64456564  0.72380545  0.55907479     0.16100
C1944       C  0.66267393  0.70583440  0.54872466     0.21900
C1945       C  0.65719075  0.67849581  0.54805551    -0.34300
C1946       C  0.63256673  0.67064698  0.55879589     0.16000
O1947       O  0.59464444  0.67649873  0.58204828    -0.26300
C1948       C  0.60071150  0.65074823  0.58032986     0.05800
C1949       C  0.62377200  0.64595190  0.56559341    -0.31200
O1950       O  0.68448329  0.71740760  0.53964120    -0.23000
C1951       C  0.68054741  0.74312473  0.54453942    -0.03000
C1952       C  0.65612578  0.74834896  0.55677942    -0.17500
H1953       H  0.60574495  0.73018332  0.57782260     0.20500
H1954       H  0.67165245  0.66420994  0.54077743     0.18900
H1955       H  0.63431721  0.62727892  0.56325823     0.18800
H1956       H  0.64744775  0.76752906  0.56145939     0.14700
C1957       C  0.44707844  0.36378313  0.72819993     0.30100
C1958       C  0.43939865  0.38961912  0.72035241    -0.36200
C1959       C  0.43526081  0.39346137  0.69304339     0.16100
C1960       C  0.43844601  0.37318713  0.67485957     0.21900
C1961       C  0.44632188  0.34753265  0.68260590    -0.34300
C1962       C  0.45029536  0.34370491  0.70979647     0.16000
O1963       O  0.45288913  0.35585284  0.75251390    -0.26300
C1964       C  0.45949160  0.33024975  0.74959366     0.05800
C1965       C  0.45832227  0.32175104  0.72341332    -0.31200
O1966       O  0.43116405  0.38022816  0.65087983    -0.23000
C1967       C  0.42330589  0.40548010  0.65339614    -0.03000
C1968       C  0.42571040  0.41490975  0.67922527    -0.17500
H1969       H  0.43656267  0.40552713  0.73456447     0.20500
H1970       H  0.44862776  0.33148300  0.66844826     0.18900
H1971       H  0.46421087  0.30260869  0.71541974     0.18800
H1972       H  0.41886700  0.43375741  0.68715708     0.14700
C1973       C  0.32495519  0.48572018  0.74088788     0.30100
C1974       C  0.34859670  0.48940223  0.72572214    -0.36200
C1975       C  0.34940171  0.47670628  0.70076344     0.16100
C1976       C  0.32824061  0.46182279  0.69176211     0.21900
C1977       C  0.30514419  0.45779738  0.70695582    -0.34300
C1978       C  0.30444502  0.47005613  0.73169982     0.16000
O1979       O  0.31815118  0.49822283  0.76301088    -0.26300
C1980       C  0.29318514  0.49002032  0.76802043     0.05800
C1981       C  0.28390360  0.47221667  0.74931211    -0.31200
O1982       O  0.33251321  0.45179587  0.66818536    -0.23000
C1983       C  0.35697900  0.45969456  0.66153717    -0.03000
C1984       C  0.36860364  0.47558332  0.68103167    -0.17500
H1985       H  0.36473321  0.50192143  0.73248900     0.20500
H1986       H  0.28849645  0.44631852  0.69963173     0.18900
H1987       H  0.26383646  0.46458277  0.74726933     0.18800
H1988       H  0.38836722  0.48425707  0.68104964     0.14700
C1989       C  0.29544097  0.34030577  0.55224272     0.30100
C1990       C  0.29607554  0.36488647  0.56398001    -0.36200
C1991       C  0.32173473  0.37453605  0.56938683     0.16100
C1992       C  0.34633816  0.36179967  0.56451806     0.21900
C1993       C  0.34964217  0.33637288  0.55288123    -0.34300
C1994       C  0.32653637  0.32348450  0.54548943     0.16000
O1995       O  0.27106371  0.31755015  0.55142517    -0.26300
C1996       C  0.28088121  0.28577950  0.54525278     0.05800
C1997       C  0.31902314  0.28809138  0.54039065    -0.31200
O1998       O  0.36637620  0.37590268  0.57369031    -0.23000
C1999       C  0.35509973  0.39724537  0.58457542    -0.03000
C2000       C  0.32762113  0.39744086  0.58226265    -0.17500
H2001       H  0.27812849  0.37505502  0.57037535     0.20500
H2002       H  0.36890298  0.32680576  0.55145451     0.18900
H2003       H  0.30124697  0.27851846  0.54177245     0.18800
H2004       H  0.31350575  0.41197283  0.58966669     0.14700
C2005       C  0.65732573  0.48963602  0.32403237     0.30100
C2006       C  0.64924313  0.49535521  0.35017922    -0.36200
C2007       C  0.62875442  0.47926483  0.36059643     0.16100
C2008       C  0.61740727  0.45881754  0.34629089     0.21900
C2009       C  0.62525494  0.45337302  0.32012534    -0.34300
C2010       C  0.64554414  0.46952169  0.30965278     0.16000
O2011       O  0.67455591  0.50340969  0.30970078    -0.26300
C2012       C  0.67360666  0.49217038  0.28578568     0.05800
C2013       C  0.65617318  0.47070134  0.28468677    -0.31200
O2014       O  0.59918150  0.44572169  0.35995456    -0.23000
C2015       C  0.59844240  0.45811941  0.38318327    -0.03000
C2016       C  0.61629070  0.47930115  0.38480773    -0.17500
H2017       H  0.65791716  0.51153795  0.36135624     0.20500
H2018       H  0.61594458  0.43779165  0.30863541     0.18900
H2019       H  0.65050288  0.45920759  0.26750484     0.18800
H2020       H  0.62010922  0.49212315  0.40158749     0.14700
C2021       C  0.65738630  0.32690576  0.46874664     0.30100
C2022       C  0.63398570  0.33908100  0.47815461    -0.36200
C2023       C  0.62405460  0.35985572  0.46263104     0.16100
C2024       C  0.63589753  0.36743528  0.43897437     0.21900
C2025       C  0.65944880  0.35533040  0.42959703    -0.34300
C2026       C  0.66989011  0.33505475  0.44560527     0.16000
O2027       O  0.67171228  0.30983092  0.48212965    -0.26300
C2028       C  0.69413696  0.30737093  0.46802935     0.05800
C2029       C  0.69395992  0.32219161  0.44463684    -0.31200
O2030       O  0.62315535  0.38717713  0.42755574    -0.23000
C2031       C  0.60319905  0.39268799  0.44429832    -0.03000
C2032       C  0.60283485  0.37643295  0.46665621    -0.17500
H2033       H  0.62497837  0.33363900  0.49701485     0.20500
H2034       H  0.66948548  0.36203841  0.41167292     0.18900
H2035       H  0.71018306  0.32528299  0.43062319     0.18800
H2036       H  0.58866918  0.37635528  0.48301068     0.14700
C2037       C  0.51731395  0.37978854  0.35464666     0.30100
C2038       C  0.50213031  0.37660628  0.33173093    -0.36200
C2039       C  0.50684119  0.35326641  0.31713329     0.16100
C2040       C  0.52465451  0.33390790  0.32487002     0.21900
C2041       C  0.54044477  0.33745251  0.34735089    -0.34300
C2042       C  0.53594704  0.36095923  0.36177551     0.16000
O2043       O  0.51677416  0.40049184  0.37082140    -0.26300
C2044       C  0.53542645  0.39485334  0.38845762     0.05800
C2045       C  0.54782555  0.37045424  0.38386622    -0.31200
O2046       O  0.52246607  0.31176591  0.31089706    -0.23000
C2047       C  0.50317424  0.31715933  0.29383225    -0.03000
C2048       C  0.49364338  0.34313618  0.29611765    -0.17500
H2049       H  0.48724560  0.39102369  0.32598738     0.20500
H2050       H  0.55456214  0.32252521  0.35369217     0.18900
H2051       H  0.56425771  0.36168796  0.39451167     0.18800
H2052       H  0.47689705  0.35198136  0.28606780     0.14700
C2053       C  0.40898495  0.70415281  0.37740794     0.30100
C2054       C  0.40459634  0.72217545  0.35676376    -0.36200
C2055       C  0.42058139  0.74497057  0.35645701     0.16100
C2056       C  0.43978075  0.74982368  0.37516746     0.21900
C2057       C  0.44387245  0.73186511  0.39636245    -0.34300
C2058       C  0.42770136  0.70881965  0.39666750     0.16000
O2059       O  0.39703747  0.68104676  0.38020731    -0.26300
C2060       C  0.40785556  0.67037488  0.40167339     0.05800
C2061       C  0.42705382  0.68684220  0.41301993    -0.31200
O2062       O  0.45497630  0.77043394  0.36857748    -0.23000
C2063       C  0.44536461  0.77871449  0.34534522    -0.03000
C2064       C  0.42357616  0.76381510  0.33728453    -0.17500
H2065       H  0.39045306  0.71806660  0.34124651     0.20500
H2066       H  0.45940743  0.73496629  0.41074745     0.18900
H2067       H  0.43905978  0.68296998  0.43028001     0.18800
H2068       H  0.41349321  0.76465750  0.31845079     0.14700
C2069       C  0.29730037  0.71463230  0.50253354     0.30100
C2070       C  0.30086597  0.68698694  0.50079668    -0.36200
C2071       C  0.32398728  0.67840235  0.48753584     0.16100
C2072       C  0.34280252  0.69580957  0.47727475     0.21900
C2073       C  0.33948925  0.72361101  0.47952680    -0.34300
C2074       C  0.31588103  0.73222776  0.49217545     0.16000
O2075       O  0.27663339  0.72674562  0.51337398    -0.26300
C2076       C  0.28164942  0.75252001  0.50963159     0.05800
C2077       C  0.30590348  0.75721935  0.49665958    -0.31200
O2078       O  0.36146067  0.68341812  0.46327075    -0.23000
C2079       C  0.35437225  0.65780397  0.46443735    -0.03000
C2080       C  0.33125961  0.65356717  0.47939208    -0.17500
H2081       H  0.28603111  0.67311354  0.50829498     0.20500
H2082       H  0.35367947  0.73751533  0.47091393     0.18900
H2083       H  0.31523926  0.77620935  0.49222899     0.18800
H2084       H  0.32028695  0.63513268  0.48207744     0.14700
C2085       C  0.30888640  0.56885033  0.31301673     0.30100
C2086       C  0.33384930  0.56579633  0.32507156    -0.36200
C2087       C  0.33671332  0.57777825  0.35006467     0.16100
C2088       C  0.31659169  0.59229886  0.36192266     0.21900
C2089       C  0.29183648  0.59572694  0.34969375    -0.34300
C2090       C  0.28876484  0.58333745  0.32503047     0.16000
O2091       O  0.30048017  0.55559903  0.29216023    -0.26300
C2092       C  0.27468374  0.56162115  0.29080025     0.05800
C2093       C  0.26639145  0.57921673  0.31047811    -0.31200
O2094       O  0.32363791  0.60242199  0.38489013    -0.23000
C2095       C  0.34863567  0.59421544  0.38825196    -0.03000
C2096       C  0.35775826  0.57861406  0.36708994    -0.17500
H2097       H  0.34945763  0.55379036  0.31619194     0.20500
H2098       H  0.27573191  0.60651785  0.35923914     0.18900
H2099       H  0.24619821  0.58512590  0.31541614     0.18800
H2100       H  0.37757051  0.57066873  0.36390286     0.14700
C2101       C  0.64093753  0.73042637  0.48184455     0.30100
C2102       C  0.61659433  0.71644737  0.48465353    -0.36200
C2103       C  0.61286607  0.69483482  0.46725263     0.16100
C2104       C  0.63196364  0.68770751  0.44872120     0.21900
C2105       C  0.65596281  0.70169879  0.44581862    -0.34300
C2106       C  0.65956374  0.72323625  0.46288004     0.16000
O2107       O  0.65004025  0.74922897  0.49766205    -0.26300
C2108       C  0.67471747  0.75409379  0.48858244     0.05800
C2109       C  0.68143858  0.73873758  0.46667893    -0.31200
O2110       O  0.62498936  0.66694627  0.43466889    -0.23000
C2111       C  0.60090177  0.66038378  0.44385621    -0.03000
C2112       C  0.59221076  0.67705186  0.46433498    -0.17500
H2113       H  0.60202786  0.72154853  0.49980064     0.20500
H2114       H  0.67110280  0.69577046  0.43155773     0.18900
H2115       H  0.70068076  0.73712412  0.45688680     0.18800
H2116       H  0.57348781  0.67639231  0.47518365     0.14700
C2117       C  0.51484407  0.74615626  0.36656396     0.30100
C2118       C  0.52265168  0.73413767  0.39064193    -0.36200
C2119       C  0.52409655  0.70599153  0.39071537     0.16100
C2120       C  0.51820209  0.69105402  0.36860428     0.21900
C2121       C  0.51035745  0.70293974  0.34487143    -0.34300
C2122       C  0.50916632  0.73074717  0.34473070     0.16000
O2123       O  0.51049956  0.77187496  0.36207814    -0.26300
C2124       C  0.50244398  0.77266107  0.33688913     0.05800
C2125       C  0.50135223  0.74762727  0.32531423    -0.31200
O2126       O  0.52283920  0.66550913  0.37184621    -0.23000
C2127       C  0.53182377  0.66347710  0.39644455    -0.03000
C2128       C  0.53276576  0.68810124  0.40939005    -0.17500
H2129       H  0.52734252  0.74584313  0.40798208     0.20500
H2130       H  0.50588918  0.69123578  0.32746447     0.18900
H2131       H  0.49361768  0.74245530  0.30604366     0.18800
H2132       H  0.54098584  0.69248822  0.42864409     0.14700
C2133       C  0.63291317  0.55489660  0.30188031     0.30100
C2134       C  0.60942519  0.55150159  0.31714637    -0.36200
C2135       C  0.60604709  0.56910268  0.33859163     0.16100
C2136       C  0.62458789  0.58853161  0.34424000     0.21900
C2137       C  0.64779415  0.59203885  0.32893596    -0.34300
C2138       C  0.65121198  0.57452167  0.30770040     0.16000
O2139       O  0.64146406  0.53911177  0.28278037    -0.26300
C2140       C  0.66556239  0.54865381  0.27642009     0.05800
C2141       C  0.67248788  0.57099516  0.29103915    -0.31200
O2142       O  0.61807584  0.60256563  0.36518893    -0.23000
C2143       C  0.59505319  0.59220883  0.37361583    -0.03000
C2144       C  0.58631778  0.57134654  0.35756874    -0.17500
H2145       H  0.59530321  0.53572090  0.31311123     0.20500
H2146       H  0.66255125  0.60697994  0.33376132     0.18900
H2147       H  0.69137436  0.58146585  0.29113946     0.18800
H2148       H  0.56813467  0.55982106  0.35947708     0.14700
C2149       C  0.33169898  0.46635404  0.35350542     0.30100
C2150       C  0.31858919  0.46022979  0.32978957    -0.36200
C2151       C  0.29961676  0.47882072  0.32129939     0.16100
C2152       C  0.29387892  0.50166277  0.33539055     0.21900
C2153       C  0.30719872  0.50796596  0.35888854    -0.34300
C2154       C  0.32639257  0.48959322  0.36716024     0.16000
O2155       O  0.34905959  0.45114810  0.36576401    -0.26300
C2156       C  0.35517043  0.46491536  0.38740747     0.05800
C2157       C  0.34196409  0.48923604  0.38912463    -0.31200
O2158       O  0.27646456  0.51686894  0.32335371    -0.23000
C2159       C  0.27126767  0.50411145  0.30085439    -0.03000
C2160       C  0.28474595  0.47992088  0.29876475    -0.17500
H2161       H  0.32290392  0.44223968  0.31874443     0.20500
H2162       H  0.30305496  0.52608855  0.36979682     0.18900
H2163       H  0.34256781  0.50375621  0.40496046     0.18800
H2164       H  0.28494929  0.46611612  0.28229765     0.14700
C2165       C  0.29456612  0.32956991  0.47093887     0.30100
C2166       C  0.30226928  0.34422333  0.44817813    -0.36200
C2167       C  0.32030847  0.36519994  0.45200792     0.16100
C2168       C  0.32922623  0.37184172  0.47662623     0.21900
C2169       C  0.32090509  0.35787393  0.49913162    -0.34300
C2170       C  0.30408630  0.33533461  0.49599315     0.16000
O2171       O  0.27818795  0.30937903  0.47090470    -0.26300
C2172       C  0.27723461  0.30134134  0.49590334     0.05800
C2173       C  0.29402149  0.31600736  0.51464979    -0.31200
O2174       O  0.34666794  0.39152908  0.47623292    -0.23000
C2175       C  0.34927928  0.39774366  0.45071877    -0.03000
C2176       C  0.33301942  0.38208637  0.43462028    -0.17500
H2177       H  0.29504662  0.33914251  0.42868674     0.20500
H2178       H  0.32759022  0.36529129  0.51761274     0.18900
H2179       H  0.30084329  0.30691657  0.56758910     0.18800
H2180       H  0.33122998  0.38249077  0.41327832     0.14700
C2181       C  0.42995210  0.34171258  0.32397927     0.30100
C2182       C  0.41713378  0.36619620  0.32794031    -0.36200
C2183       C  0.41962768  0.37754640  0.35316557     0.16100
C2184       C  0.43400826  0.36588736  0.37323642     0.21900
C2185       C  0.44716737  0.34144782  0.36918353    -0.34300
C2186       C  0.44431974  0.32985997  0.34395734     0.16000
O2187       O  0.43154025  0.32856885  0.30135588    -0.26300
C2188       C  0.44707322  0.30787147  0.30678105     0.05800
C2189       C  0.45538764  0.30752716  0.33311103    -0.31200
O2190       O  0.43251476  0.37958355  0.39563854    -0.23000
C2191       C  0.41693899  0.40019180  0.38965935    -0.03000
C2192       C  0.40848662  0.39992267  0.36354589    -0.17500
H2193       H  0.40599136  0.37579362  0.31237214     0.20500
H2194       H  0.45870205  0.33207479  0.38460162     0.18900
H2195       H  0.46964785  0.29422748  0.34211075     0.18800
H2196       H  0.39504667  0.41366683  0.35397100     0.14700
C2197       C  0.62454736  0.46153236  0.68342446     0.30100
C2198       C  0.63021355  0.45778875  0.71049814    -0.36200
C2199       C  0.65494721  0.46769576  0.71915384     0.16100
C2200       C  0.67258574  0.48065230  0.70232982     0.21900
C2201       C  0.66696622  0.48435686  0.67545611    -0.34300
C2202       C  0.64245830  0.47443227  0.66686469     0.16000
O2203       O  0.60405036  0.45157979  0.67035128    -0.26300
C2204       C  0.60900814  0.45830459  0.64514304     0.05800
C2205       C  0.63250084  0.47280265  0.64203428    -0.31200
O2206       O  0.69318974  0.49069389  0.71479707    -0.23000
C2207       C  0.68907780  0.48401547  0.74005694    -0.03000
C2208       C  0.66572516  0.46929893  0.74393192    -0.17500
H2209       H  0.61644766  0.44767306  0.72380511     0.20500
H2210       H  0.68075473  0.49443675  0.66213847     0.18900
H2211       H  0.64225548  0.47875832  0.62369230     0.18800
H2212       H  0.65663751  0.46327128  0.76256782     0.14700
C2213       C  0.54655507  0.36230770  0.67344621     0.30100
C2214       C  0.54621972  0.33738475  0.68635112    -0.36200
C2215       C  0.53516505  0.33700989  0.71208617     0.16100
C2216       C  0.52496025  0.35956837  0.72403699     0.21900
C2217       C  0.52546962  0.38441222  0.71117445    -0.34300
C2218       C  0.53663527  0.38485157  0.68557779     0.16000
O2219       O  0.55640419  0.36742679  0.64964319    -0.26300
C2220       C  0.55283378  0.39363901  0.64639606     0.05800
C2221       C  0.54053078  0.40547800  0.66819930    -0.31200
O2222       O  0.51357082  0.35445651  0.74716272    -0.23000
C2223       C  0.51679892  0.32833684  0.75044344    -0.03000
C2224       C  0.53021453  0.31639567  0.72924152    -0.17500
H2225       H  0.55384859  0.31954693  0.67692108     0.20500
H2226       H  0.51731515  0.40213001  0.72036831     0.18900
H2227       H  0.53599343  0.42632037  0.67127367     0.18800
H2228       H  0.53364051  0.29535432  0.72594791     0.14700
C2229       C  0.64132355  0.36200262  0.56432433     0.30100
C2230       C  0.65465487  0.33766508  0.56655147    -0.36200
C2231       C  0.67574030  0.33363414  0.54874034     0.16100
C2232       C  0.68295703  0.35215032  0.52970359     0.21900
C2233       C  0.66951048  0.37667284  0.52747384    -0.34300
C2234       C  0.64853122  0.38089567  0.54568632     0.16000
O2235       O  0.62178235  0.36990955  0.57976519    -0.26300
C2236       C  0.61591491  0.39425351  0.57117541     0.05800
C2237       C  0.63219509  0.40238442  0.55002634    -0.31200
O2238       O  0.70194052  0.34320111  0.51378638    -0.23000
C2239       C  0.70700117  0.31876925  0.52292450    -0.03000
C2240       C  0.69147093  0.31190884  0.54486985    -0.17500
H2241       H  0.64891816  0.32287324  0.58120808     0.20500
H2242       H  0.67486962  0.39124826  0.51247944     0.18900
H2243       H  0.63257213  0.42152389  0.54009073     0.18800
H2244       H  0.69033236  0.29287237  0.55497101     0.14700
C2245       C  0.43971807  0.68548684  0.67988727     0.30100
C2246       C  0.44605744  0.69752128  0.70408287    -0.36200
C2247       C  0.45051353  0.72508027  0.70334951     0.16100
C2248       C  0.44931599  0.73985263  0.68030353     0.21900
C2249       C  0.44311582  0.72772733  0.65596105    -0.34300
C2250       C  0.43833767  0.70006178  0.65674062     0.16000
O2251       O  0.43243423  0.66048643  0.67673693    -0.26300
C2252       C  0.42618630  0.65868816  0.65120533     0.05800
C2253       C  0.42982882  0.68272674  0.63765099    -0.31200
O2254       O  0.45597616  0.76508629  0.68403778    -0.23000
C2255       C  0.46109256  0.76645576  0.70988018    -0.03000
C2256       C  0.45792145  0.74216815  0.72284340    -0.17500
H2257       H  0.44701279  0.68621130  0.72234165     0.20500
H2258       H  0.44196360  0.73907697  0.63774612     0.18900
H2259       H  0.42476617  0.68739179  0.61737899     0.18800
H2260       H  0.46253446  0.73740703  0.74321998     0.14700
C2261       C  0.31599681  0.73160254  0.57220307     0.30100
C2262       C  0.34104251  0.71915301  0.57083668    -0.36200
C2263       C  0.34373876  0.69557672  0.58556931     0.16100
C2264       C  0.32298485  0.68475160  0.60017610     0.21900
C2265       C  0.29788175  0.69718226  0.60153531    -0.34300
C2266       C  0.29535653  0.72105174  0.58718897     0.16000
O2267       O  0.30893438  0.75322543  0.55921300    -0.26300
C2268       C  0.28351573  0.75696491  0.56620306     0.05800
C2269       C  0.27399752  0.73750826  0.58363120    -0.31200
O2270       O  0.32973308  0.66233734  0.61196767    -0.23000
C2271       C  0.35520546  0.65864330  0.60495097    -0.03000
C2272       C  0.36502847  0.67890681  0.58864508    -0.17500
H2273       H  0.35724631  0.72720516  0.55892559     0.20500
H2274       H  0.28146375  0.68877947  0.61290953     0.18900
H2275       H  0.25380389  0.73479431  0.59094589     0.18800
H2276       H  0.38487714  0.68116325  0.58033189     0.14700
C2277       C  0.30242502  0.55116580  0.72420232     0.30100
C2278       C  0.30774260  0.54988695  0.69669478    -0.36200
C2279       C  0.33172238  0.56182211  0.68791713     0.16100
C2280       C  0.34919362  0.57371068  0.70520557     0.21900
C2281       C  0.34407790  0.57455339  0.73254731    -0.34300
C2282       C  0.32001285  0.56324372  0.74121456     0.16000
O2283       O  0.28181583  0.54063236  0.73698382    -0.26300
C2284       C  0.28607402  0.54648047  0.76242808     0.05800
C2285       C  0.30956427  0.56059174  0.76615973    -0.31200
O2286       O  0.36884238  0.58618052  0.69299171    -0.23000
C2287       C  0.36416207  0.58267099  0.66735226    -0.03000
C2288       C  0.34153013  0.56703212  0.66294012    -0.17500
H2289       H  0.29393915  0.54073382  0.68310083     0.20500
H2290       H  0.35759947  0.58421746  0.74606945     0.18900
H2291       H  0.31871683  0.56602920  0.78471009     0.18800
H2292       H  0.33222809  0.56263677  0.64418738     0.14700
loop_ 
_geom_bond_atom_site_label_1 
_geom_bond_atom_site_label_2 
_geom_bond_distance 
_geom_bond_site_symmetry_2 
_ccdc_geom_bond_type 
C1            C2   1.538       .  S
C1            C7   1.525       .  S
C1            C5   1.528       .  S
C1         C2287   1.515       .  S
C2            H9   1.086       .  S
C2            C3   1.365       .  D
C3            C4   1.545       .  S
C3         C2252   1.487       .  S
C4            C8   1.563       .  S
C4            C6   1.555       .  S
C4           H10   1.109       .  S
C5           H11   1.087       .  S
C5            C6   1.363       .  D
C6         C2271   1.488       .  S
C7           H12   1.086       .  S
C7            C8   1.372       .  D
C8           C33   1.492       .  S
N13          N14   1.321       .  A
N13          N19   1.317       .  A
N13         Mn42   2.213       .  S
N14          C21   1.353       .  A
N15          N17   1.316       .  A
N15          N16   1.324       .  A
N15         Mn31   2.216       .  S
N16          C22   1.358       .  A
N17          N18   1.322       .  A
N17         Mn42   2.208       .  S
N18          C22   1.352       .  A
N19          N20   1.326       .  A
N19         Mn31   2.233       .  S
N20          C21   1.359       .  A
C21         C125   1.481       .  S
C22          C70   1.516       .  S
N23          N29   1.319       .  A
N23          N24   1.331       .  A
N23         Mn53   2.243       .  S
N24          C32   1.360       .  A
N25          N26   1.319       .  A
N25          N27   1.317       .  A
N25         Mn31   2.205       .  S
N26          C33   1.351       .  A
N27          N28   1.331       .  A
N27         Mn53   2.244       .  S
N28          C33   1.361       .  A
N29          N30   1.322       .  A
N29         Mn31   2.238       .  S
N30          C32   1.354       .  A
Mn31        Cl55   2.554       .  S
C32         C101   1.498       .  S
N34          N35   1.322       .  A
N34          N40   1.316       .  A
N34         Mn42   2.204       .  S
N35          C43   1.352       .  A
N36          N38   1.317       .  A
N36          N37   1.329       .  A
N36         Mn54   2.263       .  S
N37          C44   1.361       .  A
N38          N39   1.328       .  A
N38         Mn42   2.226       .  S
N39          C44   1.356       .  A
N40          N41   1.323       .  A
N40         Mn54   2.227       .  S
N41          C43   1.359       .  A
Mn42        Cl55   2.555       .  S
C43         C106   1.513       .  S
C44          C65   1.503       .  S
N45          N46   1.325       .  A
N45          N51   1.321       .  A
N45         Mn53   2.229       .  S
N46          C56   1.355       .  A
N47          N48   1.326       .  A
N47          N49   1.322       .  A
N47         Mn54   2.252       .  S
N48          C57   1.358       .  A
N49          N50   1.325       .  A
N49         Mn53   2.224       .  S
N50          C57   1.353       .  A
N51          N52   1.317       .  A
N51         Mn54   2.202       .  S
N52          C56   1.350       .  A
Mn53        Cl55   2.582       .  S
Mn54        Cl55   2.558       .  S
C56         C137   1.476       .  S
C57          C89   1.492       .  S
C58          C59   1.526       .  S
C58          C64   1.532       .  S
C58          C62   1.530       .  S
C58        C2236   1.508       .  S
C59          H66   1.087       .  S
C59          C60   1.364       .  D
C60          C61   1.547       .  S
C60        C2204   1.481       .  S
C61          C65   1.571       .  S
C61          C63   1.554       .  S
C61          H67   1.109       .  S
C62          H68   1.087       .  S
C62          C63   1.356       .  D
C63        C2220   1.488       .  S
C64          H69   1.086       .  S
C64          C65   1.374       .  D
C70          C71   1.539       .  S
C70          C76   1.538       .  S
C70          C74   1.547       .  S
C71          H78   1.086       .  S
C71          C72   1.371       .  D
C72          C73   1.540       .  S
C72        C2175   1.489       .  S
C73          C77   1.534       .  S
C73          C75   1.534       .  S
C73          H79   1.109       .  S
C74          H80   1.086       .  S
C74          C75   1.369       .  D
C75        C2191   1.477       .  S
C76          H81   1.086       .  S
C76          C77   1.365       .  D
C77        C2156   1.477       .  S
C82          C83   1.526       .  S
C82          C88   1.530       .  S
C82          C86   1.533       .  S
C82        C2143   1.514       .  S
C83          H90   1.087       .  S
C83          C84   1.367       .  D
C84          C85   1.548       .  S
C84        C2127   1.485       .  S
C85          C89   1.567       .  S
C85          C87   1.544       .  S
C85          H91   1.110       .  S
C86          H92   1.086       .  S
C86          C87   1.360       .  D
C87        C2111   1.485       .  S
C88          H93   1.086       .  S
C88          C89   1.373       .  D
C94          C95   1.539       .  S
C94         C100   1.534       .  S
C94          C98   1.524       .  S
C94        C2095   1.520       .  S
C95         H102   1.086       .  S
C95          C96   1.367       .  D
C96          C97   1.543       .  S
C96        C2079   1.481       .  S
C97         C101   1.562       .  S
C97          C99   1.545       .  S
C97         H103   1.110       .  S
C98         H104   1.088       .  S
C98          C99   1.362       .  D
C99        C2060   1.483       .  S
C100        H105   1.086       .  S
C100        C101   1.377       .  D
C106        C107   1.540       .  S
C106        C112   1.547       .  S
C106        C110   1.552       .  S
C107        H114   1.086       .  S
C107        C108   1.362       .  D
C108        C109   1.525       .  S
C108       C2015   1.467       .  S
C109        C113   1.523       .  S
C109        C111   1.527       .  S
C109        H115   1.111       .  S
C110        H116   1.086       .  S
C110        C111   1.371       .  D
C111       C2044   1.474       .  S
C112        H117   1.086       .  S
C112        C113   1.369       .  D
C113       C2031   1.475       .  S
C118        C119   1.524       .  S
C118        C124   1.517       .  S
C118        C122   1.530       .  S
C118       C1999   1.501       .  S
C119        H126   1.087       .  S
C119        C120   1.360       .  D
C120        C121   1.555       .  S
C120       C1967   1.483       .  S
C121        C125   1.567       .  S
C121        C123   1.551       .  S
C121        H127   1.110       .  S
C122        H128   1.084       .  S
C122        C123   1.366       .  D
C123       C1983   1.486       .  S
C124        H129   1.087       .  S
C124        C125   1.363       .  D
C130        C131   1.536       .  S
C130        C136   1.528       .  S
C130        C134   1.520       .  S
C130       C1932   1.507       .  S
C131        H138   1.086       .  S
C131        C132   1.366       .  D
C132        C133   1.535       .  S
C132       C1948   1.471       .  S
C133        C137   1.552       .  S
C133        C135   1.546       .  S
C133        H139   1.110       .  S
C134        H140   1.087       .  S
C134        C135   1.361       .  D
C135       C1919   1.480       .  S
C136        H141   1.086       .  S
C136        C137   1.373       .  D
C142        C143   1.421       .  A
C142        C147   1.405       .  A
C142       C1868   1.475       .  S
C143        C144   1.407   1_554  A
C143       C1903   1.495   1_554  S
C144        C145   1.406   1_556  A
C144        H149   1.083       .  S
C145        C146   1.416       .  A
C145       C1855   1.478   1_554  S
C146        C147   1.401       .  A
C146       C1884   1.484       .  S
C147        H148   1.084       .  S
C150        C151   1.422   1_545  A
C150        C155   1.409       .  A
C150       C1807   1.493       .  S
C151        C152   1.409       .  A
C151       C1839   1.490       .  S
C152        C153   1.408       .  A
C152        H157   1.084       .  S
C153        C154   1.416   1_565  A
C153       C1791   1.481       .  S
C154        C155   1.406       .  A
C154       C1820   1.492       .  S
C155        H156   1.084       .  S
C158        C159   1.419       .  A
C158        C163   1.406   1_655  A
C158       C1772   1.486   1_655  S
C159        C160   1.403       .  A
C159       C1740   1.480       .  S
C160        C161   1.402       .  A
C160        H165   1.084       .  S
C161        C162   1.419       .  A
C161       C1759   1.486       .  S
C162        C163   1.407   1_655  A
C162       C1724   1.485   1_655  S
C163        H164   1.084       .  S
C166        C167   1.419       .  A
C166        C171   1.405       .  A
C166       C2188   1.483       .  S
C167        C168   1.403       .  A
C167       C2047   1.482       .  S
C168        C169   1.404       .  A
C168        H173   1.084       .  S
C169        C170   1.412       .  A
C169       C1692   1.474       .  S
C170        C171   1.404       .  A
C170       C1711   1.480       .  S
C171        H172   1.084       .  S
C174        C175   1.379       .  A
C174        C179   1.388       .  A
C174       C1996   1.496       .  S
C175        C176   1.406       .  A
C175       C2172   1.496       .  S
C176        C177   1.411       .  A
C176        H181   1.083       .  S
C177        C178   1.422       .  A
C177       C1676   1.476       .  S
C178        C179   1.399       .  A
C178       C1660   1.477       .  S
C179        H180   1.083       .  S
C182        C183   1.419       .  A
C182        C187   1.401       .  A
C182       C2092   1.477       .  S
C183        C184   1.407       .  A
C183       C2159   1.491       .  S
C184        C185   1.405       .  A
C184        H189   1.084       .  S
C185        C186   1.415       .  A
C185       C1628   1.477       .  S
C186        C187   1.402       .  A
C186       C1644   1.484       .  S
C187        H188   1.084       .  S
C190        C191   1.414   1_556  A
C190        C195   1.407       .  A
C190       C1612   1.482       .  S
C191        C192   1.402       .  A
C191       C1596   1.475       .  S
C192        C193   1.402       .  A
C192        H197   1.084       .  S
C193        C194   1.413       .  A
C193       C1564   1.487       .  S
C194        C195   1.406   1_554  A
C194       C1583   1.469   1_554  S
C195        H196   1.084       .  S
C198        C199   1.418       .  A
C198        C203   1.403       .  A
C198       C1551   1.477       .  S
C199        C200   1.411       .  A
C199       C1535   1.490       .  S
C200        C201   1.410       .  A
C200        H205   1.084       .  S
C201        C202   1.414       .  A
C201       C1503   1.483       .  S
C202        C203   1.400       .  A
C202       C1519   1.482   1_554  S
C203        H204   1.084   1_554  S
C206        C207   1.421       .  A
C206        C211   1.410       .  A
C206       C1471   1.488       .  S
C207        C208   1.414       .  A
C207       C1487   1.499       .  S
C208        C209   1.414       .  A
C208        H213   1.084   1_655  S
C209        C210   1.415       .  A
C209       C1436   1.489       .  S
C210        C211   1.409       .  A
C210       C1455   1.488       .  S
C211        H212   1.084       .  S
C214        C215   1.414       .  A
C214        C219   1.403       .  A
C214       C2140   1.482       .  S
C215        C216   1.404       .  A
C215       C2012   1.478       .  S
C216        C217   1.403       .  A
C216        H221   1.084       .  S
C217        C218   1.414       .  A
C217       C1423   1.480       .  S
C218        C219   1.401       .  A
C218       C1404   1.471       .  S
C219        H220   1.084       .  S
C222        C223   1.411       .  A
C222        C227   1.407       .  A
C222       C2284   1.482       .  S
C223        C224   1.407       .  A
C223       C1980   1.483       .  S
C224        C225   1.406       .  A
C224        H229   1.084       .  S
C225        C226   1.415       .  A
C225       C1388   1.483       .  S
C226        C227   1.409       .  A
C226       C1375   1.480       .  S
C227        H228   1.084       .  S
C230        C231   1.538       .  S
C230        C236   1.543       .  S
C230        C234   1.542       .  S
C230        C250   1.524       .  S
C231        H238   1.085       .  S
C231        C232   1.371       .  D
C232        C233   1.540       .  S
C232       C1324   1.487       .  S
C233        C237   1.537       .  S
C233        C235   1.538       .  S
C233        H239   1.111       .  S
C234        H240   1.086       .  S
C234        C235   1.367       .  D
C235       C1359   1.481       .  S
C236        H241   1.085       .  S
C236        C237   1.373       .  D
C237       C1343   1.487       .  S
N242        N243   1.326       .  A
N242        N248   1.318       .  A
N242       Mn271   2.228   1_556  S
N243        C250   1.358       .  A
N244        N246   1.318       .  A
N244        N245   1.331       .  A
N244       Mn260   2.253       .  S
N245        C251   1.361       .  A
N246        N247   1.324       .  A
N246       Mn271   2.223       .  S
N247        C251   1.355       .  A
N248        N249   1.323       .  A
N248       Mn260   2.223   1_556  S
N249        C250   1.356       .  A
C251        C337   1.504       .  S
N252        N258   1.320       .  A
N252        N253   1.325       .  A
N252       Mn282   2.224       .  S
N253        C261   1.355       .  A
N254        N255   1.321       .  A
N254        N256   1.320       .  A
N254       Mn260   2.239   1_556  S
N255        C262   1.355       .  A
N256        N257   1.334       .  A
N256       Mn282   2.250   1_556  S
N257        C262   1.361       .  A
N258        N259   1.322       .  A
N258       Mn260   2.230       .  S
N259        C261   1.355       .  A
Mn260      Cl284   2.574       .  S
C261        C287   1.519       .  S
C262        C325   1.505       .  S
N263        N264   1.318       .  A
N263        N269   1.319       .  A
N263       Mn271   2.210   1_455  S
N264        C272   1.349       .  A
N265        N267   1.320       .  A
N265        N266   1.331       .  A
N265       Mn283   2.248   1_556  S
N266        C273   1.361       .  A
N267        N268   1.319       .  A
N267       Mn271   2.217   1_456  S
N268        C273   1.350       .  A
N269        N270   1.333       .  A
N269       Mn283   2.253       .  S
N270        C272   1.362       .  A
Mn271      Cl284   2.549       .  S
C272        C362   1.494       .  S
C273        C318   1.492       .  S
N274        N275   1.319       .  A
N274        N280   1.322       .  A
N274       Mn282   2.217   1_456  S
N275        C285   1.351       .  A
N276        N277   1.322       .  A
N276        N278   1.322       .  A
N276       Mn283   2.235       .  S
N277        C286   1.356       .  A
N278        N279   1.330       .  A
N278       Mn282   2.246   1_455  S
N279        C286   1.357       .  A
N280        N281   1.332       .  A
N280       Mn283   2.256   1_556  S
N281        C285   1.361       .  A
Mn282      Cl284   2.572       .  S
Mn283      Cl284   2.599   1_455  S
C285        C301   1.496       .  S
C286        C372   1.499       .  S
C287        C288   1.548       .  S
C287        C293   1.543       .  S
C287        C291   1.544       .  S
C288        H295   1.086       .  S
C288        C289   1.370       .  D
C289        C290   1.530       .  S
C289       C1532   1.483       .  S
C290        C294   1.536       .  S
C290        C292   1.530       .  S
C290        H296   1.111       .  S
C291        H297   1.086       .  S
C291        C292   1.362       .  D
C292       C1420   1.469       .  S
C293        H298   1.085       .  S
C293        C294   1.371       .  D
C294       C1756   1.482       .  S
C299        C300   1.525       .  S
C299        C305   1.527       .  S
C299        C303   1.526       .  S
C299       C1484   1.511       .  S
C300        H307   1.086       .  S
C300        C301   1.371       .  D
C301        C302   1.566       .  S
C302        C306   1.551       .  S
C302        C304   1.552       .  S
C302        H308   1.110       .  S
C303        H309   1.086       .  S
C303        C304   1.367       .  D
C304       C1391   1.481       .  S
C305        H310   1.088       .  S
C305        C306   1.360       .  D
C306       C1852   1.481       .  S
C311        C312   1.525       .  S
C311        C317   1.534       .  S
C311        C315   1.528       .  S
C311       C1311   1.506       .  S
C312        H319   1.087       .  S
C312        C313   1.360       .  D
C313        C314   1.541       .  S
C313       C1580   1.468       .  S
C314        C318   1.553       .  S
C314        C316   1.545       .  S
C314        H320   1.110       .  S
C315        H321   1.087       .  S
C315        C316   1.363       .  D
C316       C1372   1.477       .  S
C317        H322   1.086       .  S
C317        C318   1.375       .  D
C323        C324   1.525       .  S
C323        C329   1.526       .  S
C323        C327   1.523       .  S
C323       C1295   1.510       .  S
C324        H331   1.086       .  S
C324        C325   1.375       .  D
C325        C326   1.575       .  S
C326        C330   1.552       .  S
C326        C328   1.552       .  S
C326        H332   1.110       .  S
C327        H333   1.087       .  S
C327        C328   1.366       .  D
C328       C1468   1.487       .  S
C329        H334   1.087       .  S
C329        C330   1.358       .  D
C330       C1548   1.479       .  S
C335        C336   1.530       .  S
C335        C341   1.526       .  S
C335        C339   1.532       .  S
C335       C1279   1.515       .  S
C336        H343   1.086       .  S
C336        C337   1.374       .  D
C337        C338   1.569       .  S
C338        C342   1.541       .  S
C338        C340   1.556       .  S
C338        H344   1.110       .  S
C339        H345   1.087       .  S
C339        C340   1.367       .  D
C340       C1263   1.497       .  S
C341        H346   1.086       .  S
C341        C342   1.361       .  D
C342       C1407   1.473       .  S
C347        C348   1.414       .  A
C347        C352   1.403       .  A
C347       C1935   1.470       .  S
C348        C349   1.401       .  A
C348       C2207   1.484       .  S
C349        C350   1.405       .  A
C349        H354   1.084       .  S
C350        C351   1.418       .  A
C350       C1292   1.472       .  S
C351        C352   1.402       .  A
C351       C1356   1.490       .  S
C352        H353   1.084       .  S
C355        C356   1.525       .  S
C355        C361   1.522       .  S
C355        C359   1.531       .  S
C355       C1244   1.519       .  S
C356        H363   1.087       .  S
C356        C357   1.364       .  D
C357        C358   1.547       .  S
C357       C1647   1.477       .  S
C358        C362   1.566       .  S
C358        C360   1.553       .  S
C358        H364   1.110       .  S
C359        H365   1.086       .  S
C359        C360   1.363       .  D
C360       C1567   1.489       .  S
C361        H366   1.086       .  S
C361        C362   1.375       .  D
C367        C368   1.533       .  S
C367        C373   1.523       .  S
C367        C371   1.526       .  S
C367       C1631   1.506       .  S
C368        H375   1.086       .  S
C368        C369   1.366       .  D
C369        C370   1.541       .  S
C369       C1887   1.476       .  S
C370        C374   1.554       .  S
C370        C372   1.570       .  S
C370        H376   1.110       .  S
C371        H377   1.086       .  S
C371        C372   1.371       .  D
C373        H378   1.088       .  S
C373        C374   1.361       .  D
C374       C1727   1.487       .  S
C379        C380   1.415       .  A
C379        C384   1.412       .  A
C379       C1228   1.484       .  S
C380        C381   1.404       .  A
C380       C1215   1.492       .  S
C381        C382   1.407       .  A
C381        H386   1.084       .  S
C382        C383   1.428       .  A
C382       C1196   1.486       .  S
C383        C384   1.415       .  A
C383       C1183   1.507   1_545  S
C384        H385   1.083   1_545  S
C387        C388   1.418       .  A
C387        C392   1.413       .  A
C387       C2063   1.493       .  S
C388        C389   1.412       .  A
C388       C2124   1.485       .  S
C389        C390   1.411       .  A
C389        H394   1.084       .  S
C390        C391   1.415       .  A
C390       C1167   1.491       .  S
C391        C392   1.406       .  A
C391       C1148   1.489       .  S
C392        H393   1.084       .  S
C395        C396   1.413       .  A
C395        C400   1.407       .  A
C395       C2223   1.482       .  S
C396        C397   1.407       .  A
C396       C1964   1.485       .  S
C397        C398   1.409       .  A
C397        H402   1.084       .  S
C398        C399   1.419       .  A
C398       C1116   1.485       .  S
C399        C400   1.411       .  A
C399       C1132   1.496       .  S
C400        H401   1.083       .  S
C403        C404   1.522       .  S
C403        C409   1.519       .  S
C403        C407   1.526       .  S
C403       C1103   1.504       .  S
C404        H411   1.087       .  S
C404        C405   1.362       .  D
C405        C406   1.557       .  S
C405       C1135   1.484       .  S
C406        C410   1.571       .  S
C406        C408   1.547       .  S
C406        H412   1.110       .  S
C407        H413   1.087       .  S
C407        C408   1.360       .  D
C408       C1516   1.475       .  S
C409        H414   1.086       .  S
C409        C410   1.369       .  D
C410        C435   1.493       .  S
N415        N416   1.324       .  A
N415        N421   1.319       .  A
N415       Mn444   2.230   1_556  S
N416        C423   1.355       .  A
N417        N419   1.317       .  A
N417        N418   1.325       .  A
N417       Mn433   2.237   1_565  S
N418        C424   1.359       .  A
N419        N420   1.325       .  A
N419       Mn444   2.218       .  S
N420        C424   1.355       .  A
N421        N422   1.324       .  A
N421       Mn433   2.222   1_566  S
N422        C423   1.355       .  A
C423        C498   1.487       .  S
C424        C460   1.526       .  S
N425        N431   1.318       .  A
N425        N426   1.320       .  A
N425       Mn455   2.218       .  S
N426        C434   1.354       .  A
N427        N428   1.320       .  A
N427        N429   1.318       .  A
N427       Mn433   2.227   1_556  S
N428        C435   1.355       .  A
N429        N430   1.330       .  A
N429       Mn455   2.228   1_556  S
N430        C435   1.357       .  A
N431        N432   1.326       .  A
N431       Mn433   2.215       .  S
N432        C434   1.354       .  A
Mn433      Cl457   2.580       .  S
C434        C547   1.484       .  S
N436        N437   1.321       .  A
N436        N442   1.320       .  A
N436       Mn444   2.216       .  S
N437        C445   1.350       .  A
N438        N440   1.320       .  A
N438        N439   1.329       .  A
N438       Mn456   2.228   1_566  S
N439        C446   1.356       .  A
N440        N441   1.321       .  A
N440       Mn444   2.228   1_556  S
N441        C446   1.354       .  A
N442        N443   1.330       .  A
N442       Mn456   2.257   1_565  S
N443        C445   1.362       .  A
Mn444      Cl457   2.540   1_565  S
C445        C515   1.495       .  S
C446        C474   1.489       .  S
N447        N448   1.320       .  A
N447        N453   1.321       .  A
N447       Mn455   2.222   1_556  S
N448        C458   1.352       .  A
N449        N450   1.332       .  A
N449        N451   1.319       .  A
N449       Mn456   2.236       .  S
N450        C459   1.360       .  A
N451        N452   1.320       .  A
N451       Mn455   2.227       .  S
N452        C459   1.353       .  A
N453        N454   1.333       .  A
N453       Mn456   2.265   1_556  S
N454        C458   1.363       .  A
Mn455      Cl457   2.540       .  S
Mn456      Cl457   2.609       .  S
C458        C491   1.502       .  S
C459        C535   1.502       .  S
C460        C461   1.550       .  S
C460        C466   1.547       .  S
C460        C464   1.545       .  S
C461        H468   1.086       .  S
C461        C462   1.373       .  D
C462        C463   1.529       .  S
C462       C1164   1.483       .  S
C463        C467   1.526       .  S
C463        C465   1.526       .  S
C463        H469   1.111       .  S
C464        H470   1.085       .  S
C464        C465   1.369       .  D
C465       C1084   1.473       .  S
C466        H471   1.086       .  S
C466        C467   1.369       .  D
C467       C1071   1.478       .  S
C472        C473   1.521       .  S
C472        C478   1.526       .  S
C472        C476   1.519       .  S
C472       C1052   1.497       .  S
C473        H480   1.087       .  S
C473        C474   1.366       .  D
C474        C475   1.567       .  S
C475        C479   1.547       .  S
C475        C477   1.557       .  S
C475        H481   1.110       .  S
C476        H482   1.087       .  S
C476        C477   1.360       .  D
C477       C1615   1.479       .  S
C478        H483   1.086       .  S
C478        C479   1.366       .  D
C479       C1231   1.484       .  S
C484        C485   1.538       .  S
C484        C490   1.529       .  S
C484        C488   1.530       .  S
C484       C1119   1.523       .  S
C485        H492   1.086       .  S
C485        C486   1.370       .  D
C486        C487   1.547       .  S
C486       C1212   1.489       .  S
C487        C491   1.562       .  S
C487        C489   1.542       .  S
C487        H493   1.110       .  S
C488        H494   1.087       .  S
C488        C489   1.362       .  D
C489       C1900   1.474       .  S
C490        H495   1.086       .  S
C490        C491   1.374       .  D
C496        C497   1.530       .  S
C496        C502   1.536       .  S
C496        C500   1.527       .  S
C496       C1023   1.528       .  S
C497        H504   1.086       .  S
C497        C498   1.372       .  D
C498        C499   1.562       .  S
C499        C503   1.542       .  S
C499        C501   1.549       .  S
C499        H505   1.110       .  S
C500        H506   1.087       .  S
C500        C501   1.363       .  D
C501       C1039   1.490       .  S
C502        H507   1.085       .  S
C502        C503   1.374       .  D
C503       C1004   1.487       .  S
C508        C509   1.535       .  S
C508        C514   1.542       .  S
C508        C512   1.528       .  S
C508       C1151   1.531       .  S
C509        H516   1.087       .  S
C509        C510   1.365       .  D
C510        C511   1.537       .  S
C510       C1788   1.477       .  S
C511        C515   1.552       .  S
C511        C513   1.550       .  S
C511        H517   1.111       .  S
C512        H518   1.086       .  S
C512        C513   1.363       .  D
C513       C1599   1.478       .  S
C514        H519   1.086       .  S
C514        C515   1.379       .  D
C520        C521   1.414       .  A
C520        C525   1.401       .  A
C520       C2255   1.480       .  S
C521        C522   1.408       .  A
C521       C1916   1.478       .  S
C522        C523   1.406       .  A
C522        H527   1.084       .  S
C523        C524   1.413       .  A
C523       C1036   1.490       .  S
C524        C525   1.403       .  A
C524       C1055   1.467       .  S
C525        H526   1.084       .  S
C528        C529   1.535       .  S
C528        C534   1.529       .  S
C528        C532   1.527       .  S
C528       C1708   1.522       .  S
C529        H536   1.085       .  S
C529        C530   1.362       .  D
C530        C531   1.546       .  S
C530       C1871   1.485       .  S
C531        C535   1.570       .  S
C531        C533   1.549       .  S
C531        H537   1.110       .  S
C532        H538   1.087       .  S
C532        C533   1.365       .  D
C533       C1823   1.486       .  S
C534        H539   1.086       .  S
C534        C535   1.376       .  D
C540        C541   1.532       .  S
C540        C546   1.528       .  S
C540        C544   1.528       .  S
C540       C1695   1.506       .  S
C541        H548   1.086       .  S
C541        C542   1.365       .  D
C542        C543   1.549       .  S
C542        C988   1.483       .  S
C543        C547   1.561       .  S
C543        C545   1.544       .  S
C543        H549   1.111       .  S
C544        H550   1.087       .  S
C544        C545   1.360       .  D
C545       C1500   1.479       .  S
C546        H551   1.086       .  S
C546        C547   1.371       .  D
C552        C553   1.413       .  A
C552        C557   1.397       .  A
C552       C1247   1.477   1_655  S
C553        C554   1.400       .  A
C553       C1276   1.473       .  S
C554        C555   1.406       .  A
C554        H559   1.084       .  S
C555        C556   1.418       .  A
C555        C972   1.483       .  S
C556        C557   1.400       .  A
C556        C956   1.469       .  S
C557        H558   1.084   1_655  S
C560        C561   1.418   1_565  A
C560        C565   1.407       .  A
C560       C1087   1.479       .  S
C561        C562   1.405       .  A
C561        C991   1.488       .  S
C562        C563   1.407       .  A
C562        H567   1.084       .  S
C563        C564   1.414   1_545  A
C563        C940   1.479       .  S
C564        C565   1.402       .  A
C564        C924   1.480       .  S
C565        H566   1.084       .  S
C568        C569   1.419       .  A
C568        C573   1.400       .  A
C568       C2239   1.481       .  S
C569        C570   1.408       .  A
C569       C2028   1.484       .  S
C570        C571   1.408       .  A
C570        H575   1.084       .  S
C571        C572   1.415       .  A
C571        C895   1.482       .  S
C572        C573   1.399       .  A
C572        C911   1.478       .  S
C573        H574   1.084       .  S
C576        C577   1.412       .  A
C576        C581   1.411       .  A
C576       C2268   1.483       .  S
C577        C578   1.400       .  A
C577       C2076   1.480       .  S
C578        C579   1.404       .  A
C578        H583   1.084       .  S
C579        C580   1.420       .  A
C579        C860   1.480       .  S
C580        C581   1.412       .  A
C580        C876   1.496       .  S
C581        H582   1.083       .  S
C584        C585   1.529       .  S
C584        C590   1.530       .  S
C584        C588   1.532       .  S
C584        C943   1.523       .  S
C585        H592   1.086       .  S
C585        C586   1.374       .  D
C586        C587   1.567       .  S
C586        C616   1.492       .  S
C587        C591   1.545       .  S
C587        C589   1.547       .  S
C587        H593   1.110       .  S
C588        H594   1.086       .  S
C588        C589   1.365       .  D
C589        C892   1.485       .  S
C590        H595   1.087       .  S
C590        C591   1.362       .  D
C591       C1743   1.486       .  S
N596        N597   1.328       .  A
N596        N602   1.318       .  A
N596       Mn625   2.221       .  S
N597        C604   1.356       .  A
N598        N600   1.318       .  A
N598        N599   1.323       .  A
N598       Mn614   2.223   1_565  S
N599        C605   1.356       .  A
N600        N601   1.320       .  A
N600       Mn625   2.211   1_565  S
N601        C605   1.353       .  A
N602        N603   1.320       .  A
N602       Mn614   2.222       .  S
N603        C604   1.354       .  A
C604        C679   1.490       .  S
C605        C689   1.509       .  S
N606        N612   1.319       .  A
N606        N607   1.328       .  A
N606       Mn636   2.241   1_565  S
N607        C615   1.357       .  A
N608        N609   1.324       .  A
N608        N610   1.318       .  A
N608       Mn614   2.216       .  S
N609        C616   1.355       .  A
N610        N611   1.326       .  A
N610       Mn636   2.242       .  S
N611        C616   1.358       .  A
N612        N613   1.328       .  A
N612       Mn614   2.244   1_565  S
N613        C615   1.358       .  A
Mn614      Cl638   2.548       .  S
C615        C648   1.500       .  S
N617        N618   1.323       .  A
N617        N623   1.317       .  A
N617       Mn625   2.203   1_465  S
N618        C626   1.353       .  A
N619        N621   1.318       .  A
N619        N620   1.317       .  A
N619       Mn637   2.219       .  S
N620        C627   1.352       .  A
N621        N622   1.331       .  A
N621       Mn625   2.226   1_455  S
N622        C627   1.359       .  A
N623        N624   1.323       .  A
N623       Mn637   2.230   1_565  S
N624        C626   1.357       .  A
Mn625      Cl638   2.586       .  S
C626        C665   1.519       .  S
C627        C728   1.492       .  S
N628        N629   1.327       .  A
N628        N634   1.318       .  A
N628       Mn636   2.226   1_455  S
N629        C639   1.356       .  A
N630        N631   1.325       .  A
N630        N632   1.320       .  A
N630       Mn637   2.224   1_565  S
N631        C640   1.355       .  A
N632        N633   1.323       .  A
N632       Mn636   2.233   1_465  S
N633        C640   1.356       .  A
N634        N635   1.322       .  A
N634       Mn637   2.223       .  S
N635        C639   1.355       .  A
Mn636      Cl638   2.577       .  S
Mn637      Cl638   2.539   1_455  S
C639        C711   1.494       .  S
C640        C653   1.519       .  S
C641        C642   1.523       .  S
C641        C647   1.533       .  S
C641        C645   1.537       .  S
C641        C927   1.515       .  S
C642        H649   1.088       .  S
C642        C643   1.359       .  D
C643        C644   1.546       .  S
C643        C975   1.477       .  S
C644        C648   1.567       .  S
C644        C646   1.545       .  S
C644        H650   1.110       .  S
C645        H651   1.086       .  S
C645        C646   1.363       .  D
C646        C844   1.483       .  S
C647        H652   1.086       .  S
C647        C648   1.375       .  D
C653        C654   1.546       .  S
C653        C659   1.544       .  S
C653        C657   1.539       .  S
C654        H661   1.086       .  S
C654        C655   1.370       .  D
C655        C656   1.530       .  S
C655       C1836   1.480       .  S
C656        C660   1.529       .  S
C656        C658   1.529       .  S
C656        H662   1.111       .  S
C657        H663   1.086       .  S
C657        C658   1.364       .  D
C658        C959   1.464       .  S
C659        H664   1.086       .  S
C659        C660   1.369       .  D
C660        C863   1.471       .  S
C665        C666   1.539       .  S
C665        C671   1.543       .  S
C665        C669   1.544       .  S
C666        H673   1.085       .  S
C666        C667   1.366       .  D
C667        C668   1.531       .  S
C667        C879   1.473       .  S
C668        C672   1.532       .  S
C668        C670   1.532       .  S
C668        H674   1.110       .  S
C669        H675   1.085       .  S
C669        C670   1.373       .  D
C670        C828   1.482       .  S
C671        H676   1.085       .  S
C671        C672   1.373       .  D
C672       C1180   1.490       .  S
C677        C678   1.522       .  S
C677        C683   1.530       .  S
C677        C681   1.528       .  S
C677        C908   1.508       .  S
C678        H685   1.087       .  S
C678        C679   1.368       .  D
C679        C680   1.569       .  S
C680        C684   1.549       .  S
C680        C682   1.554       .  S
C680        H686   1.110       .  S
C681        H687   1.087       .  S
C681        C682   1.366       .  D
C682        C812   1.492       .  S
C683        H688   1.086       .  S
C683        C684   1.365       .  D
C684       C1452   1.488       .  S
C689        C690   1.544       .  S
C689        C695   1.539       .  S
C689        C693   1.542       .  S
C690        H697   1.085       .  S
C690        C691   1.368       .  D
C691        C692   1.529       .  S
C691        C764   1.477       .  S
C692        C696   1.529       .  S
C692        C694   1.529       .  S
C692        H698   1.111       .  S
C693        H699   1.086       .  S
C693        C694   1.369       .  D
C694        C799   1.470       .  S
C695        H700   1.086       .  S
C695        C696   1.365       .  D
C696        C780   1.473       .  S
C701        C702   1.414       .  A
C701        C706   1.399       .  A
C701       C1951   1.470       .  S
C702        C703   1.409       .  A
C702       C2108   1.485       .  S
C703        C704   1.405       .  A
C703        H708   1.084       .  S
C704        C705   1.414       .  A
C704        C847   1.485       .  S
C705        C706   1.402       .  A
C705        C796   1.474       .  S
C706        H707   1.084       .  S
C709        C710   1.523       .  S
C709        C715   1.531       .  S
C709        C713   1.535       .  S
C709       C1679   1.519       .  S
C710        H717   1.086       .  S
C710        C711   1.372       .  D
C711        C712   1.571       .  S
C712        C716   1.547       .  S
C712        C714   1.543       .  S
C712        H718   1.110       .  S
C713        H719   1.087       .  S
C713        C714   1.359       .  D
C714       C1804   1.482       .  S
C715        H720   1.084       .  S
C715        C716   1.368       .  D
C716       C1775   1.492       .  S
C721        C722   1.530       .  S
C721        C727   1.521       .  S
C721        C725   1.529       .  S
C721       C1663   1.505       .  S
C722        H729   1.085       .  S
C722        C723   1.369       .  D
C723        C724   1.548       .  S
C723       C1439   1.485       .  S
C724        C728   1.564       .  S
C724        C726   1.550       .  S
C724        H730   1.110       .  S
C725        H731   1.087       .  S
C725        C726   1.361       .  D
C726       C1199   1.483       .  S
C727        H732   1.087       .  S
C727        C728   1.369       .  D
C733        C734   1.415       .  A
C733        C738   1.399       .  A
C733       C1308   1.461       .  S
C734        C735   1.403       .  A
C734       C1340   1.495       .  S
C735        C736   1.410       .  A
C735        H740   1.084       .  S
C736        C737   1.419       .  A
C736        C767   1.475       .  S
C737        C738   1.398       .  A
C737        C831   1.489       .  S
C738        H739   1.084   1_655  S
C741        C742   1.412       .  A
C741        C746   1.409       .  A
C741       C1100   1.473       .  S
C742        C743   1.400   1_545  A
C742       C1007   1.488   1_545  S
C743        C744   1.411   1_565  A
C743        H748   1.084       .  S
C744        C745   1.421       .  A
C744        C783   1.479   1_545  S
C745        C746   1.408       .  A
C745        C815   1.498       .  S
C746        H747   1.084       .  S
C749        C750   1.422       .  A
C749        C754   1.416       .  A
C749       C1327   1.499       .  S
C750        C751   1.414       .  A
C750       C1260   1.498       .  S
C751        C752   1.415       .  A
C751        H756   1.084       .  S
C752        C753   1.423       .  A
C752       C1068   1.494       .  S
C753        C754   1.411       .  A
C753       C1020   1.501       .  S
C754        H755   1.083   1_554  S
C757        C762   1.380       .  A
C757        C758   1.401       .  A
C757        O763   1.315       .  A
C758        C759   1.399       .  A
C758        H769   1.082       .  S
C759        C768   1.361       .  A
C759        C760   1.381       .  A
C760        C761   1.403       .  A
C760        O766   1.315       .  A
C761        C762   1.401       .  A
C761        H770   1.083       .  S
C762        C765   1.363       .  A
O763        C764   1.331       .  A
C764        C765   1.392       .  A
C765        H771   1.082       .  S
O766        C767   1.331       .  A
C767        C768   1.388       .  A
C768        H772   1.082       .  S
C773        C778   1.380       .  A
C773        C774   1.402       .  A
C773        O779   1.314       .  A
C774        C775   1.399       .  A
C774        H785   1.082       .  S
C775        C784   1.362       .  A
C775        C776   1.380       .  A
C776        C777   1.402       .  A
C776        O782   1.312   1_565  A
C777        C778   1.400       .  A
C777        H786   1.083   1_565  S
C778        C781   1.363       .  A
O779        C780   1.329       .  A
C780        C781   1.392       .  A
C781        H787   1.082       .  S
O782        C783   1.330   1_545  A
C783        C784   1.391       .  A
C784        H788   1.082       .  S
C789        C794   1.380       .  A
C789        C790   1.402       .  A
C789        O795   1.311       .  A
C790        C791   1.399       .  A
C790        H801   1.082       .  S
C791        C800   1.364       .  A
C791        C792   1.380       .  A
C792        C793   1.401       .  A
C792        O798   1.312       .  A
C793        C794   1.398       .  A
C793        H802   1.082       .  S
C794        C797   1.362       .  A
O795        C796   1.329       .  A
C796        C797   1.389       .  A
C797        H803   1.082       .  S
O798        C799   1.329       .  A
C799        C800   1.390       .  A
C800        H804   1.082       .  S
C805        C810   1.378       .  A
C805        C806   1.405       .  A
C805        O811   1.315       .  A
C806        C807   1.402       .  A
C806        H817   1.082       .  S
C807        C816   1.367       .  A
C807        C808   1.378       .  A
C808        C809   1.415       .  A
C808        O814   1.325       .  A
C809        C810   1.411       .  A
C809        H818   1.082       .  S
C810        C813   1.377       .  A
O811        C812   1.333       .  A
C812        C813   1.397       .  A
C813        H819   1.082       .  S
O814        C815   1.339       .  A
C815        C816   1.391       .  A
C816        H820   1.082       .  S
C821        C826   1.379       .  A
C821        C822   1.405       .  A
C821        O827   1.317       .  A
C822        C823   1.403       .  A
C822        H833   1.082       .  S
C823        C832   1.365       .  A
C823        C824   1.380       .  A
C824        C825   1.404   1_455  A
C824        O830   1.318   1_455  A
C825        C826   1.402   1_655  A
C825        H834   1.082       .  S
C826        C829   1.365       .  A
O827        C828   1.332       .  A
C828        C829   1.392       .  A
C829        H835   1.082       .  S
O830        C831   1.332       .  A
C831        C832   1.393   1_655  A
C832        H836   1.082       .  S
C837        C842   1.380       .  A
C837        C838   1.403       .  A
C837        O843   1.318       .  A
C838        C839   1.402       .  A
C838        H849   1.082       .  S
C839        C848   1.362       .  A
C839        C840   1.379       .  A
C840        C841   1.410       .  A
C840        O846   1.325       .  A
C841        C842   1.409       .  A
C841        H850   1.082       .  S
C842        C845   1.370       .  A
O843        C844   1.331       .  A
C844        C845   1.395       .  A
C845        H851   1.082       .  S
O846        C847   1.336       .  A
C847        C848   1.390       .  A
C848        H852   1.082       .  S
C853        C858   1.380       .  A
C853        C854   1.404       .  A
C853        O859   1.316       .  A
C854        C855   1.401       .  A
C854        H865   1.082       .  S
C855        C864   1.364       .  A
C855        C856   1.380       .  A
C856        C857   1.404       .  A
C856        O862   1.316       .  A
C857        C858   1.402       .  A
C857        H866   1.082       .  S
C858        C861   1.364       .  A
O859        C860   1.332       .  A
C860        C861   1.390       .  A
C861        H867   1.082       .  S
O862        C863   1.330       .  A
C863        C864   1.390       .  A
C864        H868   1.082       .  S
C869        C874   1.379       .  A
C869        C870   1.404       .  A
C869        O875   1.315       .  A
C870        C871   1.400       .  A
C870        H881   1.083       .  S
C871        C880   1.363       .  A
C871        C872   1.379       .  A
C872        C873   1.405       .  A
C872        O878   1.315       .  A
C873        C874   1.404       .  A
C873        H882   1.082       .  S
C874        C877   1.369       .  A
O875        C876   1.333       .  A
C876        C877   1.395       .  A
C877        H883   1.082       .  S
O878        C879   1.330       .  A
C879        C880   1.391       .  A
C880        H884   1.082       .  S
C885        C890   1.378       .  A
C885        C886   1.401       .  A
C885        O891   1.311       .  A
C886        C887   1.398       .  A
C886        H897   1.082       .  S
C887        C896   1.364       .  A
C887        C888   1.379       .  A
C888        C889   1.410       .  A
C888        O894   1.318       .  A
C889        C890   1.406       .  A
C889        H898   1.082       .  S
C890        C893   1.372       .  A
O891        C892   1.331       .  A
C892        C893   1.396       .  A
C893        H899   1.082       .  S
O894        C895   1.335       .  A
C895        C896   1.390       .  A
C896        H900   1.082       .  S
C901        C906   1.380       .  A
C901        C902   1.405       .  A
C901        O907   1.316       .  A
C902        C903   1.401       .  A
C902        H913   1.082       .  S
C903        C912   1.365       .  A
C903        C904   1.379       .  A
C904        C905   1.401       .  A
C904        O910   1.313       .  A
C905        C906   1.399       .  A
C905        H914   1.082       .  S
C906        C909   1.362       .  A
O907        C908   1.332       .  A
C908        C909   1.392       .  A
C909        H915   1.082       .  S
O910        C911   1.330       .  A
C911        C912   1.391       .  A
C912        H916   1.082       .  S
C917        C922   1.378       .  A
C917        C918   1.406       .  A
C917        O923   1.321       .  A
C918        C919   1.405       .  A
C918        H929   1.082       .  S
C919        C928   1.364       .  A
C919        C920   1.378       .  A
C920        C921   1.402       .  A
C920        O926   1.316       .  A
C921        C922   1.401       .  A
C921        H930   1.082       .  S
C922        C925   1.360       .  A
O923        C924   1.334       .  A
C924        C925   1.390       .  A
C925        H931   1.082       .  S
O926        C927   1.333       .  A
C927        C928   1.397       .  A
C928        H932   1.082       .  S
C933        C938   1.379       .  A
C933        C934   1.407       .  A
C933        O939   1.319       .  A
C934        C935   1.405       .  A
C934        H945   1.082       .  S
C935        C944   1.367       .  A
C935        C936   1.377       .  A
C936        C937   1.405       .  A
C936        O942   1.317       .  A
C937        C938   1.402       .  A
C937        H946   1.082       .  S
C938        C941   1.364       .  A
O939        C940   1.332       .  A
C940        C941   1.390       .  A
C941        H947   1.082       .  S
O942        C943   1.335       .  A
C943        C944   1.398       .  A
C944        H948   1.082       .  S
C949        C954   1.382       .  A
C949        C950   1.400       .  A
C949        O955   1.317       .  A
C950        C951   1.400       .  A
C950        H961   1.082       .  S
C951        C960   1.356       .  A
C951        C952   1.382       .  A
C952        C953   1.398       .  A
C952        O958   1.316       .  A
C953        C954   1.398       .  A
C953        H962   1.082   1_455  S
C954        C957   1.352   1_455  A
O955        C956   1.329   1_455  A
C956        C957   1.389       .  A
C957        H963   1.083       .  S
O958        C959   1.328       .  A
C959        C960   1.389       .  A
C960        H964   1.082       .  S
C965        C970   1.380       .  A
C965        C966   1.412       .  A
C965        O971   1.322       .  A
C966        C967   1.409       .  A
C966        H977   1.082       .  S
C967        C976   1.374       .  A
C967        C968   1.380       .  A
C968        C969   1.394       .  A
C968        O974   1.307       .  A
C969        C970   1.392       .  A
C969        H978   1.083       .  S
C970        C973   1.355       .  A
O971        C972   1.337       .  A
C972        C973   1.385       .  A
C973        H979   1.083       .  S
O974        C975   1.328       .  A
C975        C976   1.393       .  A
C976        H980   1.082       .  S
C981        C986   1.379       .  A
C981        C982   1.404       .  A
C981        O987   1.318       .  A
C982        C983   1.403       .  A
C982        H993   1.082       .  S
C983        C992   1.362       .  A
C983        C984   1.379       .  A
C984        C985   1.410       .  A
C984        O990   1.325       .  A
C985        C986   1.409       .  A
C985        H994   1.082       .  S
C986        C989   1.369       .  A
O987        C988   1.333       .  A
C988        C989   1.394       .  A
C989        H995   1.082       .  S
O990        C991   1.336       .  A
C991        C992   1.393       .  A
C992        H996   1.082       .  S
C997       C1002   1.378       .  A
C997        C998   1.416       .  A
C997       O1003   1.328       .  A
C998        C999   1.416       .  A
C998       H1009   1.082       .  S
C999       C1008   1.375       .  A
C999       C1000   1.380       .  A
C1000      C1001   1.396       .  A
C1000      O1006   1.315       .  A
C1001      C1002   1.395       .  A
C1001      H1010   1.082       .  S
C1002      C1005   1.352       .  A
O1003      C1004   1.339       .  A
C1004      C1005   1.388       .  A
C1005      H1011   1.082       .  S
O1006      C1007   1.327       .  A
C1007      C1008   1.400       .  A
C1008      H1012   1.082       .  S
C1013      C1018   1.378       .  A
C1013      C1014   1.410       .  A
C1013      O1019   1.324       .  A
C1014      C1015   1.409       .  A
C1014      H1025   1.082       .  S
C1015      C1024   1.367       .  A
C1015      C1016   1.377       .  A
C1016      C1017   1.410       .  A
C1016      O1022   1.325       .  A
C1017      C1018   1.409       .  A
C1017      H1026   1.082       .  S
C1018      C1021   1.370       .  A
O1019      C1020   1.336   1_556  A
C1020      C1021   1.395   1_554  A
C1021      H1027   1.082       .  S
O1022      C1023   1.336       .  A
C1023      C1024   1.398       .  A
C1024      H1028   1.082       .  S
C1029      C1034   1.378       .  A
C1029      C1030   1.415       .  A
C1029      O1035   1.325       .  A
C1030      C1031   1.412       .  A
C1030      H1041   1.082       .  S
C1031      C1040   1.378       .  A
C1031      C1032   1.378       .  A
C1032      C1033   1.401       .  A
C1032      O1038   1.312       .  A
C1033      C1034   1.399       .  A
C1033      H1042   1.082       .  S
C1034      C1037   1.362       .  A
O1035      C1036   1.338       .  A
C1036      C1037   1.389       .  A
C1037      H1043   1.082       .  S
O1038      C1039   1.331       .  A
C1039      C1040   1.398       .  A
C1040      H1044   1.082       .  S
C1045      C1050   1.380       .  A
C1045      C1046   1.402       .  A
C1045      O1051   1.314       .  A
C1046      C1047   1.400       .  A
C1046      H1057   1.082       .  S
C1047      C1056   1.362       .  A
C1047      C1048   1.381       .  A
C1048      C1049   1.398       .  A
C1048      O1054   1.312       .  A
C1049      C1050   1.396       .  A
C1049      H1058   1.082       .  S
C1050      C1053   1.356       .  A
O1051      C1052   1.330       .  A
C1052      C1053   1.389       .  A
C1053      H1059   1.083       .  S
O1054      C1055   1.328       .  A
C1055      C1056   1.389       .  A
C1056      H1060   1.082       .  S
C1061      C1066   1.378       .  A
C1061      C1062   1.405       .  A
C1061      O1067   1.315       .  A
C1062      C1063   1.400       .  A
C1062      H1073   1.081       .  S
C1063      C1072   1.367       .  A
C1063      C1064   1.378       .  A
C1064      C1065   1.408       .  A
C1064      O1070   1.316       .  A
C1065      C1066   1.406       .  A
C1065      H1074   1.082       .  S
C1066      C1069   1.371       .  A
O1067      C1068   1.330       .  A
C1068      C1069   1.396       .  A
C1069      H1075   1.082       .  S
O1070      C1071   1.333       .  A
C1071      C1072   1.391       .  A
C1072      H1076   1.082       .  S
C1077      C1082   1.380       .  A
C1077      C1078   1.404       .  A
C1077      O1083   1.314       .  A
C1078      C1079   1.401       .  A
C1078      H1089   1.082       .  S
C1079      C1088   1.365       .  A
C1079      C1080   1.379       .  A
C1080      C1081   1.400       .  A
C1080      O1086   1.310       .  A
C1081      C1082   1.396       .  A
C1081      H1090   1.082   1_565  S
C1082      C1085   1.360       .  A
O1083      C1084   1.331       .  A
C1084      C1085   1.389       .  A
C1085      H1091   1.082       .  S
O1086      C1087   1.328       .  A
C1087      C1088   1.392       .  A
C1088      H1092   1.082       .  S
C1093      C1098   1.379       .  A
C1093      C1094   1.402       .  A
C1093      O1099   1.315       .  A
C1094      C1095   1.400       .  A
C1094      H1105   1.082       .  S
C1095      C1104   1.359       .  A
C1095      C1096   1.380       .  A
C1096      C1097   1.402       .  A
C1096      O1102   1.315       .  A
C1097      C1098   1.400       .  A
C1097      H1106   1.082       .  S
C1098      C1101   1.361       .  A
O1099      C1100   1.331       .  A
C1100      C1101   1.389       .  A
C1101      H1107   1.082       .  S
O1102      C1103   1.331       .  A
C1103      C1104   1.392       .  A
C1104      H1108   1.083       .  S
C1109      C1114   1.379       .  A
C1109      C1110   1.406       .  A
C1109      O1115   1.318       .  A
C1110      C1111   1.404       .  A
C1110      H1121   1.082       .  S
C1111      C1120   1.368       .  A
C1111      C1112   1.378       .  A
C1112      C1113   1.410       .  A
C1112      O1118   1.320       .  A
C1113      C1114   1.407       .  A
C1113      H1122   1.082       .  S
C1114      C1117   1.371       .  A
O1115      C1116   1.333       .  A
C1116      C1117   1.393       .  A
C1117      H1123   1.082       .  S
O1118      C1119   1.337       .  A
C1119      C1120   1.393       .  A
C1120      H1124   1.082       .  S
C1125      C1130   1.378       .  A
C1125      C1126   1.410       .  A
C1125      O1131   1.318       .  A
C1126      C1127   1.406       .  A
C1126      H1137   1.082       .  S
C1127      C1136   1.375       .  A
C1127      C1128   1.379       .  A
C1128      C1129   1.404       .  A
C1128      O1134   1.312       .  A
C1129      C1130   1.400       .  A
C1129      H1138   1.082       .  S
C1130      C1133   1.366       .  A
O1131      C1132   1.335       .  A
C1132      C1133   1.392       .  A
C1133      H1139   1.082       .  S
O1134      C1135   1.333       .  A
C1135      C1136   1.392       .  A
C1136      H1140   1.082       .  S
C1141      C1146   1.378       .  A
C1141      C1142   1.405       .  A
C1141      O1147   1.322       .  A
C1142      C1143   1.405       .  A
C1142      H1153   1.082       .  S
C1143      C1152   1.366       .  A
C1143      C1144   1.377       .  A
C1144      C1145   1.412       .  A
C1144      O1150   1.325       .  A
C1145      C1146   1.411       .  A
C1145      H1154   1.082       .  S
C1146      C1149   1.369       .  A
O1147      C1148   1.332       .  A
C1148      C1149   1.396       .  A
C1149      H1155   1.082       .  S
O1150      C1151   1.339       .  A
C1151      C1152   1.395       .  A
C1152      H1156   1.082       .  S
C1157      C1162   1.379       .  A
C1157      C1158   1.407       .  A
C1157      O1163   1.318       .  A
C1158      C1159   1.404       .  A
C1158      H1169   1.082       .  S
C1159      C1168   1.369       .  A
C1159      C1160   1.378       .  A
C1160      C1161   1.409       .  A
C1160      O1166   1.318       .  A
C1161      C1162   1.406       .  A
C1161      H1170   1.082       .  S
C1162      C1165   1.371       .  A
O1163      C1164   1.332       .  A
C1164      C1165   1.393       .  A
C1165      H1171   1.082       .  S
O1166      C1167   1.334       .  A
C1167      C1168   1.393       .  A
C1168      H1172   1.082       .  S
C1173      C1178   1.377       .  A
C1173      C1174   1.415       .  A
C1173      O1179   1.325       .  A
C1174      C1175   1.414       .  A
C1174      H1185   1.082       .  S
C1175      C1184   1.378       .  A
C1175      C1176   1.377       .  A
C1176      C1177   1.401   1_565  A
C1176      O1182   1.312   1_565  A
C1177      C1178   1.397   1_545  A
C1177      H1186   1.082       .  S
C1178      C1181   1.360       .  A
O1179      C1180   1.338       .  A
C1180      C1181   1.390       .  A
C1181      H1187   1.082       .  S
O1182      C1183   1.330   1_545  A
C1183      C1184   1.402       .  A
C1184      H1188   1.082       .  S
C1189      C1194   1.380       .  A
C1189      C1190   1.402       .  A
C1189      O1195   1.318       .  A
C1190      C1191   1.401       .  A
C1190      H1201   1.082       .  S
C1191      C1200   1.358       .  A
C1191      C1192   1.378       .  A
C1192      C1193   1.412       .  A
C1192      O1198   1.327       .  A
C1193      C1194   1.411       .  A
C1193      H1202   1.082       .  S
C1194      C1197   1.371       .  A
O1195      C1196   1.332       .  A
C1196      C1197   1.395       .  A
C1197      H1203   1.082       .  S
O1198      C1199   1.337       .  A
C1199      C1200   1.391       .  A
C1200      H1204   1.083       .  S
C1205      C1210   1.378       .  A
C1205      C1206   1.404       .  A
C1205      O1211   1.318       .  A
C1206      C1207   1.403       .  A
C1206      H1217   1.082       .  S
C1207      C1216   1.367       .  A
C1207      C1208   1.379       .  A
C1208      C1209   1.411       .  A
C1208      O1214   1.322       .  A
C1209      C1210   1.409       .  A
C1209      H1218   1.082       .  S
C1210      C1213   1.370       .  A
O1211      C1212   1.332       .  A
C1212      C1213   1.397       .  A
C1213      H1219   1.082       .  S
O1214      C1215   1.336       .  A
C1215      C1216   1.392       .  A
C1216      H1220   1.082       .  S
C1221      C1226   1.379       .  A
C1221      C1222   1.397       .  A
C1221      O1227   1.313   1_565  A
C1222      C1223   1.397       .  A
C1222      H1233   1.083   1_565  S
C1223      C1232   1.352       .  A
C1223      C1224   1.379       .  A
C1224      C1225   1.413       .  A
C1224      O1230   1.328       .  A
C1225      C1226   1.412       .  A
C1225      H1234   1.082       .  S
C1226      C1229   1.373       .  A
O1227      C1228   1.330       .  A
C1228      C1229   1.395   1_545  A
C1229      H1235   1.082       .  S
O1230      C1231   1.337       .  A
C1231      C1232   1.390       .  A
C1232      H1236   1.083       .  S
C1237      C1242   1.378       .  A
C1237      C1238   1.404       .  A
C1237      O1243   1.317       .  A
C1238      C1239   1.402       .  A
C1238      H1249   1.082       .  S
C1239      C1248   1.361       .  A
C1239      C1240   1.379       .  A
C1240      C1241   1.406       .  A
C1240      O1246   1.320   1_455  A
C1241      C1242   1.405       .  A
C1241      H1250   1.082       .  S
C1242      C1245   1.365       .  A
O1243      C1244   1.334       .  A
C1244      C1245   1.396       .  A
C1245      H1251   1.082       .  S
O1246      C1247   1.333   1_655  A
C1247      C1248   1.389       .  A
C1248      H1252   1.082       .  S
C1253      C1258   1.379       .  A
C1253      C1254   1.416       .  A
C1253      O1259   1.327       .  A
C1254      C1255   1.413       .  A
C1254      H1265   1.082       .  S
C1255      C1264   1.378       .  A
C1255      C1256   1.378       .  A
C1256      C1257   1.403       .  A
C1256      O1262   1.316       .  A
C1257      C1258   1.402       .  A
C1257      H1266   1.082       .  S
C1258      C1261   1.365       .  A
O1259      C1260   1.340       .  A
C1260      C1261   1.390       .  A
C1261      H1267   1.082       .  S
O1262      C1263   1.333       .  A
C1263      C1264   1.399       .  A
C1264      H1268   1.082       .  S
C1269      C1274   1.379       .  A
C1269      C1270   1.396       .  A
C1269      O1275   1.309       .  A
C1270      C1271   1.393       .  A
C1270      H1281   1.082       .  S
C1271      C1280   1.359       .  A
C1271      C1272   1.378       .  A
C1272      C1273   1.412       .  A
C1272      O1278   1.319       .  A
C1273      C1274   1.407       .  A
C1273      H1282   1.082       .  S
C1274      C1277   1.371       .  A
O1275      C1276   1.325       .  A
C1276      C1277   1.394       .  A
C1277      H1283   1.082       .  S
O1278      C1279   1.338       .  A
C1279      C1280   1.387       .  A
C1280      H1284   1.082       .  S
C1285      C1290   1.380       .  A
C1285      C1286   1.406       .  A
C1285      O1291   1.316       .  A
C1286      C1287   1.403       .  A
C1286      H1297   1.082       .  S
C1287      C1296   1.367       .  A
C1287      C1288   1.379       .  A
C1288      C1289   1.401       .  A
C1288      O1294   1.312       .  A
C1289      C1290   1.398       .  A
C1289      H1298   1.082       .  S
C1290      C1293   1.362       .  A
O1291      C1292   1.333       .  A
C1292      C1293   1.388       .  A
C1293      H1299   1.082       .  S
O1294      C1295   1.331       .  A
C1295      C1296   1.394       .  A
C1296      H1300   1.082       .  S
C1301      C1306   1.381       .  A
C1301      C1302   1.399       .  A
C1301      O1307   1.315   1_455  A
C1302      C1303   1.398       .  A
C1302      H1313   1.082   1_455  S
C1303      C1312   1.359       .  A
C1303      C1304   1.380       .  A
C1304      C1305   1.402       .  A
C1304      O1310   1.315       .  A
C1305      C1306   1.400       .  A
C1305      H1314   1.083       .  S
C1306      C1309   1.358       .  A
O1307      C1308   1.328       .  A
C1308      C1309   1.388   1_655  A
C1309      H1315   1.083       .  S
O1310      C1311   1.334       .  A
C1311      C1312   1.389       .  A
C1312      H1316   1.082       .  S
C1317      C1322   1.379       .  A
C1317      C1318   1.409       .  A
C1317      O1323   1.322       .  A
C1318      C1319   1.407       .  A
C1318      H1329   1.082       .  S
C1319      C1328   1.369       .  A
C1319      C1320   1.378   1_556  A
C1320      C1321   1.404       .  A
C1320      O1326   1.317       .  A
C1321      C1322   1.402   1_554  A
C1321      H1330   1.083       .  S
C1322      C1325   1.362       .  A
O1323      C1324   1.334       .  A
C1324      C1325   1.393       .  A
C1325      H1331   1.082       .  S
O1326      C1327   1.333       .  A
C1327      C1328   1.396   1_554  A
C1328      H1332   1.082       .  S
C1333      C1338   1.379       .  A
C1333      C1334   1.406       .  A
C1333      O1339   1.317       .  A
C1334      C1335   1.404       .  A
C1334      H1345   1.083       .  S
C1335      C1344   1.365       .  A
C1335      C1336   1.379       .  A
C1336      C1337   1.409       .  A
C1336      O1342   1.322       .  A
C1337      C1338   1.407       .  A
C1337      H1346   1.082       .  S
C1338      C1341   1.371       .  A
O1339      C1340   1.333       .  A
C1340      C1341   1.395       .  A
C1341      H1347   1.082       .  S
O1342      C1343   1.334       .  A
C1343      C1344   1.393       .  A
C1344      H1348   1.082       .  S
C1349      C1354   1.378       .  A
C1349      C1350   1.404       .  A
C1349      O1355   1.314       .  A
C1350      C1351   1.402       .  A
C1350      H1361   1.083       .  S
C1351      C1360   1.365       .  A
C1351      C1352   1.380       .  A
C1352      C1353   1.406       .  A
C1352      O1358   1.318       .  A
C1353      C1354   1.403       .  A
C1353      H1362   1.082       .  S
C1354      C1357   1.368       .  A
O1355      C1356   1.332       .  A
C1356      C1357   1.394       .  A
C1357      H1363   1.082       .  S
O1358      C1359   1.331       .  A
C1359      C1360   1.394       .  A
C1360      H1364   1.083       .  S
C1365      C1370   1.380       .  A
C1365      C1366   1.401       .  A
C1365      O1371   1.315       .  A
C1366      C1367   1.400       .  A
C1366      H1377   1.082       .  S
C1367      C1376   1.360       .  A
C1367      C1368   1.380       .  A
C1368      C1369   1.407       .  A
C1368      O1374   1.321       .  A
C1369      C1370   1.405       .  A
C1369      H1378   1.082       .  S
C1370      C1373   1.366       .  A
O1371      C1372   1.331       .  A
C1372      C1373   1.392       .  A
C1373      H1379   1.082       .  S
O1374      C1375   1.334       .  A
C1375      C1376   1.388       .  A
C1376      H1380   1.082       .  S
C1381      C1386   1.379       .  A
C1381      C1382   1.408       .  A
C1381      O1387   1.319       .  A
C1382      C1383   1.405       .  A
C1382      H1393   1.082       .  S
C1383      C1392   1.370       .  A
C1383      C1384   1.378       .  A
C1384      C1385   1.402       .  A
C1384      O1390   1.312       .  A
C1385      C1386   1.400       .  A
C1385      H1394   1.082       .  S
C1386      C1389   1.363       .  A
O1387      C1388   1.333       .  A
C1388      C1389   1.391       .  A
C1389      H1395   1.083       .  S
O1390      C1391   1.331       .  A
C1391      C1392   1.393       .  A
C1392      H1396   1.082       .  S
C1397      C1402   1.380       .  A
C1397      C1398   1.406       .  A
C1397      O1403   1.320       .  A
C1398      C1399   1.405       .  A
C1398      H1409   1.082       .  S
C1399      C1408   1.367       .  A
C1399      C1400   1.380       .  A
C1400      C1401   1.398       .  A
C1400      O1406   1.311       .  A
C1401      C1402   1.396       .  A
C1401      H1410   1.083       .  S
C1402      C1405   1.355       .  A
O1403      C1404   1.331       .  A
C1404      C1405   1.389       .  A
C1405      H1411   1.083       .  S
O1406      C1407   1.329       .  A
C1407      C1408   1.394       .  A
C1408      H1412   1.082       .  S
C1413      C1418   1.380       .  A
C1413      C1414   1.407       .  A
C1413      O1419   1.323       .  A
C1414      C1415   1.408       .  A
C1414      H1425   1.082       .  S
C1415      C1424   1.362       .  A
C1415      C1416   1.381       .  A
C1416      C1417   1.396       .  A
C1416      O1422   1.316       .  A
C1417      C1418   1.396       .  A
C1417      H1426   1.082       .  S
C1418      C1421   1.353       .  A
O1419      C1420   1.333       .  A
C1420      C1421   1.384       .  A
C1421      H1427   1.083       .  S
O1422      C1423   1.326       .  A
C1423      C1424   1.397       .  A
C1424      H1428   1.082       .  S
C1429      C1434   1.379       .  A
C1429      C1430   1.402       .  A
C1429      O1435   1.321       .  A
C1430      C1431   1.402       .  A
C1430      H1441   1.082       .  S
C1431      C1440   1.359       .  A
C1431      C1432   1.379       .  A
C1432      C1433   1.408       .  A
C1432      O1438   1.323       .  A
C1433      C1434   1.409       .  A
C1433      H1442   1.082       .  S
C1434      C1437   1.366   1_455  A
O1435      C1436   1.330   1_455  A
C1436      C1437   1.398       .  A
C1437      H1443   1.082       .  S
O1438      C1439   1.333       .  A
C1439      C1440   1.394       .  A
C1440      H1444   1.082       .  S
C1445      C1450   1.379       .  A
C1445      C1446   1.399       .  A
C1445      O1451   1.313       .  A
C1446      C1447   1.397       .  A
C1446      H1457   1.082       .  S
C1447      C1456   1.356       .  A
C1447      C1448   1.378       .  A
C1448      C1449   1.415       .  A
C1448      O1454   1.328       .  A
C1449      C1450   1.414       .  A
C1449      H1458   1.082       .  S
C1450      C1453   1.377       .  A
O1451      C1452   1.330       .  A
C1452      C1453   1.399       .  A
C1453      H1459   1.082       .  S
O1454      C1455   1.338       .  A
C1455      C1456   1.389       .  A
C1456      H1460   1.083       .  S
C1461      C1466   1.378       .  A
C1461      C1462   1.414       .  A
C1461      O1467   1.330       .  A
C1462      C1463   1.415       .  A
C1462      H1473   1.082       .  S
C1463      C1472   1.374       .  A
C1463      C1464   1.380       .  A
C1464      C1465   1.398       .  A
C1464      O1470   1.317       .  A
C1465      C1466   1.398       .  A
C1465      H1474   1.082       .  S
C1466      C1469   1.353       .  A
O1467      C1468   1.338       .  A
C1468      C1469   1.390       .  A
C1469      H1475   1.083       .  S
O1470      C1471   1.329       .  A
C1471      C1472   1.400       .  A
C1472      H1476   1.082       .  S
C1477      C1482   1.379       .  A
C1477      C1478   1.409       .  A
C1477      O1483   1.319       .  A
C1478      C1479   1.408       .  A
C1478      H1489   1.082       .  S
C1479      C1488   1.373       .  A
C1479      C1480   1.378       .  A
C1480      C1481   1.405   1_455  A
C1480      O1486   1.317   1_455  A
C1481      C1482   1.402   1_655  A
C1481      H1490   1.082       .  S
C1482      C1485   1.364       .  A
O1483      C1484   1.334       .  A
C1484      C1485   1.393       .  A
C1485      H1491   1.083       .  S
O1486      C1487   1.333       .  A
C1487      C1488   1.398   1_655  A
C1488      H1492   1.082       .  S
C1493      C1498   1.379       .  A
C1493      C1494   1.410       .  A
C1493      O1499   1.324       .  A
C1494      C1495   1.409       .  A
C1494      H1505   1.082       .  S
C1495      C1504   1.371       .  A
C1495      C1496   1.379       .  A
C1496      C1497   1.400       .  A
C1496      O1502   1.315       .  A
C1497      C1498   1.400       .  A
C1497      H1506   1.082       .  S
C1498      C1501   1.358       .  A
O1499      C1500   1.333       .  A
C1500      C1501   1.391       .  A
C1501      H1507   1.083       .  S
O1502      C1503   1.331       .  A
C1503      C1504   1.395       .  A
C1504      H1508   1.082       .  S
C1509      C1514   1.379       .  A
C1509      C1510   1.400       .  A
C1509      O1515   1.312       .  A
C1510      C1511   1.398       .  A
C1510      H1521   1.082       .  S
C1511      C1520   1.358       .  A
C1511      C1512   1.378       .  A
C1512      C1513   1.410       .  A
C1512      O1518   1.324       .  A
C1513      C1514   1.409       .  A
C1513      H1522   1.082       .  S
C1514      C1517   1.372       .  A
O1515      C1516   1.330       .  A
C1516      C1517   1.394       .  A
C1517      H1523   1.082       .  S
O1518      C1519   1.335       .  A
C1519      C1520   1.390       .  A
C1520      H1524   1.082   1_556  S
C1525      C1530   1.380       .  A
C1525      C1526   1.406       .  A
C1525      O1531   1.324       .  A
C1526      C1527   1.407       .  A
C1526      H1537   1.082       .  S
C1527      C1536   1.363       .  A
C1527      C1528   1.379       .  A
C1528      C1529   1.407       .  A
C1528      O1534   1.324       .  A
C1529      C1530   1.407       .  A
C1529      H1538   1.082       .  S
C1530      C1533   1.364       .  A
O1531      C1532   1.331       .  A
C1532      C1533   1.394       .  A
C1533      H1539   1.083       .  S
O1534      C1535   1.333       .  A
C1535      C1536   1.396       .  A
C1536      H1540   1.082       .  S
C1541      C1546   1.379       .  A
C1541      C1542   1.403       .  A
C1541      O1547   1.315       .  A
C1542      C1543   1.400       .  A
C1542      H1553   1.082   1_556  S
C1543      C1552   1.359   1_556  A
C1543      C1544   1.380       .  A
C1544      C1545   1.407       .  A
C1544      O1550   1.322       .  A
C1545      C1546   1.406       .  A
C1545      H1554   1.082       .  S
C1546      C1549   1.369       .  A
O1547      C1548   1.333       .  A
C1548      C1549   1.393       .  A
C1549      H1555   1.082       .  S
O1550      C1551   1.332   1_556  A
C1551      C1552   1.389       .  A
C1552      H1556   1.082       .  S
C1557      C1562   1.379       .  A
C1557      C1558   1.411       .  A
C1557      O1563   1.321       .  A
C1558      C1559   1.409       .  A
C1558      H1569   1.082       .  S
C1559      C1568   1.374       .  A
C1559      C1560   1.378       .  A
C1560      C1561   1.402       .  A
C1560      O1566   1.313       .  A
C1561      C1562   1.399       .  A
C1561      H1570   1.082       .  S
C1562      C1565   1.362       .  A
O1563      C1564   1.336       .  A
C1564      C1565   1.389       .  A
C1565      H1571   1.082       .  S
O1566      C1567   1.332       .  A
C1567      C1568   1.396       .  A
C1568      H1572   1.082       .  S
C1573      C1578   1.381       .  A
C1573      C1574   1.407       .  A
C1573      O1579   1.320       .  A
C1574      C1575   1.405       .  A
C1574      H1585   1.082       .  S
C1575      C1584   1.367       .  A
C1575      C1576   1.380       .  A
C1576      C1577   1.396       .  A
C1576      O1582   1.310       .  A
C1577      C1578   1.395       .  A
C1577      H1586   1.083       .  S
C1578      C1581   1.353       .  A
O1579      C1580   1.331       .  A
C1580      C1581   1.389       .  A
C1581      H1587   1.083       .  S
O1582      C1583   1.327       .  A
C1583      C1584   1.393       .  A
C1584      H1588   1.082       .  S
C1589      C1594   1.380       .  A
C1589      C1590   1.405       .  A
C1589      O1595   1.320       .  A
C1590      C1591   1.404       .  A
C1590      H1601   1.082       .  S
C1591      C1600   1.366       .  A
C1591      C1592   1.380       .  A
C1592      C1593   1.403       .  A
C1592      O1598   1.316       .  A
C1593      C1594   1.401       .  A
C1593      H1602   1.082       .  S
C1594      C1597   1.361       .  A
O1595      C1596   1.331       .  A
C1596      C1597   1.389       .  A
C1597      H1603   1.082       .  S
O1598      C1599   1.332       .  A
C1599      C1600   1.391       .  A
C1600      H1604   1.082       .  S
C1605      C1610   1.379       .  A
C1605      C1606   1.406       .  A
C1605      O1611   1.315       .  A
C1606      C1607   1.402       .  A
C1606      H1617   1.082       .  S
C1607      C1616   1.369       .  A
C1607      C1608   1.379       .  A
C1608      C1609   1.403       .  A
C1608      O1614   1.311       .  A
C1609      C1610   1.399       .  A
C1609      H1618   1.082       .  S
C1610      C1613   1.365       .  A
O1611      C1612   1.332       .  A
C1612      C1613   1.390       .  A
C1613      H1619   1.082       .  S
O1614      C1615   1.333       .  A
C1615      C1616   1.391       .  A
C1616      H1620   1.082       .  S
C1621      C1626   1.380       .  A
C1621      C1622   1.403       .  A
C1621      O1627   1.314       .  A
C1622      C1623   1.401       .  A
C1622      H1633   1.082       .  S
C1623      C1632   1.363       .  A
C1623      C1624   1.379       .  A
C1624      C1625   1.403       .  A
C1624      O1630   1.315       .  A
C1625      C1626   1.401       .  A
C1625      H1634   1.082       .  S
C1626      C1629   1.365       .  A
O1627      C1628   1.331       .  A
C1628      C1629   1.390       .  A
C1629      H1635   1.082       .  S
O1630      C1631   1.332       .  A
C1631      C1632   1.393       .  A
C1632      H1636   1.082       .  S
C1637      C1642   1.379       .  A
C1637      C1638   1.409       .  A
C1637      O1643   1.317       .  A
C1638      C1639   1.405       .  A
C1638      H1649   1.082       .  S
C1639      C1648   1.374       .  A
C1639      C1640   1.379       .  A
C1640      C1641   1.398       .  A
C1640      O1646   1.305       .  A
C1641      C1642   1.394       .  A
C1641      H1650   1.083       .  S
C1642      C1645   1.361       .  A
O1643      C1644   1.334       .  A
C1644      C1645   1.389       .  A
C1645      H1651   1.083       .  S
O1646      C1647   1.329       .  A
C1647      C1648   1.393       .  A
C1648      H1652   1.082       .  S
C1653      C1658   1.379       .  A
C1653      C1654   1.401       .  A
C1653      O1659   1.312       .  A
C1654      C1655   1.399       .  A
C1654      H1665   1.082       .  S
C1655      C1664   1.361       .  A
C1655      C1656   1.380       .  A
C1656      C1657   1.402       .  A
C1656      O1662   1.314       .  A
C1657      C1658   1.399       .  A
C1657      H1666   1.082       .  S
C1658      C1661   1.362       .  A
O1659      C1660   1.329       .  A
C1660      C1661   1.391       .  A
C1661      H1667   1.082       .  S
O1662      C1663   1.331       .  A
C1663      C1664   1.391       .  A
C1664      H1668   1.082       .  S
C1669      C1674   1.380       .  A
C1669      C1670   1.407       .  A
C1669      O1675   1.322       .  A
C1670      C1671   1.406       .  A
C1670      H1681   1.082       .  S
C1671      C1680   1.364       .  A
C1671      C1672   1.376       .  A
C1672      C1673   1.399       .  A
C1672      O1678   1.315       .  A
C1673      C1674   1.399       .  A
C1673      H1682   1.082       .  S
C1674      C1677   1.358       .  A
O1675      C1676   1.333       .  A
C1676      C1677   1.389       .  A
C1677      H1683   1.083       .  S
O1678      C1679   1.333       .  A
C1679      C1680   1.400       .  A
C1680      H1684   1.082       .  S
C1685      C1690   1.380       .  A
C1685      C1686   1.403       .  A
C1685      O1691   1.317       .  A
C1686      C1687   1.402       .  A
C1686      H1697   1.082       .  S
C1687      C1696   1.361       .  A
C1687      C1688   1.379       .  A
C1688      C1689   1.403       .  A
C1688      O1694   1.318       .  A
C1689      C1690   1.402       .  A
C1689      H1698   1.082       .  S
C1690      C1693   1.362       .  A
O1691      C1692   1.332       .  A
C1692      C1693   1.389       .  A
C1693      H1699   1.082       .  S
O1694      C1695   1.333       .  A
C1695      C1696   1.392       .  A
C1696      H1700   1.082       .  S
C1701      C1706   1.378       .  A
C1701      C1702   1.400       .  A
C1701      O1707   1.312       .  A
C1702      C1703   1.397       .  A
C1702      H1713   1.082       .  S
C1703      C1712   1.361       .  A
C1703      C1704   1.379       .  A
C1704      C1705   1.412       .  A
C1704      O1710   1.321       .  A
C1705      C1706   1.410       .  A
C1705      H1714   1.082       .  S
C1706      C1709   1.374       .  A
O1707      C1708   1.331       .  A
C1708      C1709   1.400       .  A
C1709      H1715   1.082       .  S
O1710      C1711   1.336       .  A
C1711      C1712   1.388       .  A
C1712      H1716   1.082       .  S
C1717      C1722   1.379       .  A
C1717      C1718   1.408       .  A
C1717      O1723   1.320   1_455  A
C1718      C1719   1.405       .  A
C1718      H1729   1.082   1_455  S
C1719      C1728   1.372       .  A
C1719      C1720   1.379       .  A
C1720      C1721   1.405       .  A
C1720      O1726   1.315       .  A
C1721      C1722   1.402       .  A
C1721      H1730   1.083       .  S
C1722      C1725   1.364       .  A
O1723      C1724   1.334   1_655  A
C1724      C1725   1.391       .  A
C1725      H1731   1.083       .  S
O1726      C1727   1.334       .  A
C1727      C1728   1.391       .  A
C1728      H1732   1.082       .  S
C1733      C1738   1.381       .  A
C1733      C1734   1.400       .  A
C1733      O1739   1.318       .  A
C1734      C1735   1.402       .  A
C1734      H1745   1.083       .  S
C1735      C1744   1.354       .  A
C1735      C1736   1.381       .  A
C1736      C1737   1.406       .  A
C1736      O1742   1.326       .  A
C1737      C1738   1.406       .  A
C1737      H1746   1.082       .  S
C1738      C1741   1.362       .  A
O1739      C1740   1.328       .  A
C1740      C1741   1.395       .  A
C1741      H1747   1.082       .  S
O1742      C1743   1.331       .  A
C1743      C1744   1.395       .  A
C1744      H1748   1.083       .  S
C1749      C1754   1.379       .  A
C1749      C1750   1.406       .  A
C1749      O1755   1.317       .  A
C1750      C1751   1.404       .  A
C1750      H1761   1.082       .  S
C1751      C1760   1.368       .  A
C1751      C1752   1.380       .  A
C1752      C1753   1.402       .  A
C1752      O1758   1.314       .  A
C1753      C1754   1.400       .  A
C1753      H1762   1.082       .  S
C1754      C1757   1.365       .  A
O1755      C1756   1.332       .  A
C1756      C1757   1.393       .  A
C1757      H1763   1.082       .  S
O1758      C1759   1.329       .  A
C1759      C1760   1.395       .  A
C1760      H1764   1.083       .  S
C1765      C1770   1.381       .  A
C1765      C1766   1.396       .  A
C1765      O1771   1.318       .  A
C1766      C1767   1.398       .  A
C1766      H1777   1.083       .  S
C1767      C1776   1.346       .  A
C1767      C1768   1.380       .  A
C1768      C1769   1.409       .  A
C1768      O1774   1.330       .  A
C1769      C1770   1.412       .  A
C1769      H1778   1.082   1_455  S
C1770      C1773   1.366   1_455  A
O1771      C1772   1.328       .  A
C1772      C1773   1.398   1_455  A
C1773      H1779   1.082       .  S
O1774      C1775   1.334       .  A
C1775      C1776   1.394       .  A
C1776      H1780   1.083       .  S
C1781      C1786   1.379       .  A
C1781      C1782   1.410       .  A
C1781      O1787   1.323       .  A
C1782      C1783   1.409       .  A
C1782      H1793   1.082       .  S
C1783      C1792   1.371       .  A
C1783      C1784   1.379       .  A
C1784      C1785   1.399       .  A
C1784      O1790   1.314       .  A
C1785      C1786   1.399       .  A
C1785      H1794   1.082   1_565  S
C1786      C1789   1.357       .  A
O1787      C1788   1.334       .  A
C1788      C1789   1.391       .  A
C1789      H1795   1.083       .  S
O1790      C1791   1.330       .  A
C1791      C1792   1.395       .  A
C1792      H1796   1.082       .  S
C1797      C1802   1.379       .  A
C1797      C1798   1.400       .  A
C1797      O1803   1.312       .  A
C1798      C1799   1.397       .  A
C1798      H1809   1.082       .  S
C1799      C1808   1.360       .  A
C1799      C1800   1.378       .  A
C1800      C1801   1.413       .  A
C1800      O1806   1.323       .  A
C1801      C1802   1.410       .  A
C1801      H1810   1.082       .  S
C1802      C1805   1.374       .  A
O1803      C1804   1.331       .  A
C1804      C1805   1.394       .  A
C1805      H1811   1.082       .  S
O1806      C1807   1.338       .  A
C1807      C1808   1.389       .  A
C1808      H1812   1.082       .  S
C1813      C1818   1.378       .  A
C1813      C1814   1.411       .  A
C1813      O1819   1.321       .  A
C1814      C1815   1.408       .  A
C1814      H1825   1.082       .  S
C1815      C1824   1.374       .  A
C1815      C1816   1.379       .  A
C1816      C1817   1.403       .  A
C1816      O1822   1.314       .  A
C1817      C1818   1.400       .  A
C1817      H1826   1.082       .  S
C1818      C1821   1.364       .  A
O1819      C1820   1.336       .  A
C1820      C1821   1.391       .  A
C1821      H1827   1.082       .  S
O1822      C1823   1.332       .  A
C1823      C1824   1.395       .  A
C1824      H1828   1.082       .  S
C1829      C1834   1.381       .  A
C1829      C1830   1.400       .  A
C1829      O1835   1.321       .  A
C1830      C1831   1.401       .  A
C1830      H1841   1.082       .  S
C1831      C1840   1.353       .  A
C1831      C1832   1.380       .  A
C1832      C1833   1.408       .  A
C1832      O1838   1.327       .  A
C1833      C1834   1.409       .  A
C1833      H1842   1.082       .  S
C1834      C1837   1.364       .  A
O1835      C1836   1.329       .  A
C1836      C1837   1.394       .  A
C1837      H1843   1.083       .  S
O1838      C1839   1.334       .  A
C1839      C1840   1.392       .  A
C1840      H1844   1.082   1_565  S
C1845      C1850   1.379       .  A
C1845      C1846   1.413       .  A
C1845      O1851   1.328       .  A
C1846      C1847   1.411       .  A
C1846      H1857   1.082       .  S
C1847      C1856   1.369       .  A
C1847      C1848   1.380       .  A
C1848      C1849   1.396       .  A
C1848      O1854   1.314       .  A
C1849      C1850   1.397       .  A
C1849      H1858   1.082   1_556  S
C1850      C1853   1.355       .  A
O1851      C1852   1.339       .  A
C1852      C1853   1.388       .  A
C1853      H1859   1.083       .  S
O1854      C1855   1.328       .  A
C1855      C1856   1.394       .  A
C1856      H1860   1.082       .  S
C1861      C1866   1.381       .  A
C1861      C1862   1.398       .  A
C1861      O1867   1.315       .  A
C1862      C1863   1.398       .  A
C1862      H1873   1.082       .  S
C1863      C1872   1.355       .  A
C1863      C1864   1.379       .  A
C1864      C1865   1.411       .  A
C1864      O1870   1.326       .  A
C1865      C1866   1.410       .  A
C1865      H1874   1.082       .  S
C1866      C1869   1.370       .  A
O1867      C1868   1.327       .  A
C1868      C1869   1.395       .  A
C1869      H1875   1.082       .  S
O1870      C1871   1.335       .  A
C1871      C1872   1.392       .  A
C1872      H1876   1.083       .  S
C1877      C1882   1.380       .  A
C1877      C1878   1.398       .  A
C1877      O1883   1.315       .  A
C1878      C1879   1.397       .  A
C1878      H1889   1.082       .  S
C1879      C1888   1.355       .  A
C1879      C1880   1.379       .  A
C1880      C1881   1.411       .  A
C1880      O1886   1.324       .  A
C1881      C1882   1.410       .  A
C1881      H1890   1.082       .  S
C1882      C1885   1.371       .  A
O1883      C1884   1.329       .  A
C1884      C1885   1.396       .  A
C1885      H1891   1.082       .  S
O1886      C1887   1.335       .  A
C1887      C1888   1.389       .  A
C1888      H1892   1.083       .  S
C1893      C1898   1.380       .  A
C1893      C1894   1.404       .  A
C1893      O1899   1.311       .  A
C1894      C1895   1.401       .  A
C1894      H1905   1.082       .  S
C1895      C1904   1.369       .  A
C1895      C1896   1.377       .  A
C1896      C1897   1.405       .  A
C1896      O1902   1.312   1_556  A
C1897      C1898   1.400       .  A
C1897      H1906   1.082   1_556  S
C1898      C1901   1.370       .  A
O1899      C1900   1.331       .  A
C1900      C1901   1.389       .  A
C1901      H1907   1.082       .  S
O1902      C1903   1.331   1_554  A
C1903      C1904   1.396       .  A
C1904      H1908   1.082       .  S
C1909      C1914   1.379       .  A
C1909      C1910   1.409       .  A
C1909      O1915   1.320       .  A
C1910      C1911   1.406       .  A
C1910      H1921   1.082       .  S
C1911      C1920   1.372       .  A
C1911      C1912   1.379       .  A
C1912      C1913   1.399       .  A
C1912      O1918   1.310       .  A
C1913      C1914   1.396       .  A
C1913      H1922   1.082       .  S
C1914      C1917   1.359       .  A
O1915      C1916   1.334       .  A
C1916      C1917   1.387       .  A
C1917      H1923   1.083       .  S
O1918      C1919   1.330       .  A
C1919      C1920   1.395       .  A
C1920      H1924   1.082       .  S
C1925      C1930   1.379       .  A
C1925      C1926   1.403       .  A
C1925      O1931   1.315       .  A
C1926      C1927   1.400       .  A
C1926      H1937   1.082       .  S
C1927      C1936   1.363       .  A
C1927      C1928   1.380       .  A
C1928      C1929   1.402       .  A
C1928      O1934   1.314       .  A
C1929      C1930   1.401       .  A
C1929      H1938   1.082       .  S
C1930      C1933   1.364       .  A
O1931      C1932   1.331       .  A
C1932      C1933   1.394       .  A
C1933      H1939   1.082       .  S
O1934      C1935   1.329       .  A
C1935      C1936   1.389       .  A
C1936      H1940   1.083       .  S
C1941      C1946   1.381       .  A
C1941      C1942   1.405       .  A
C1941      O1947   1.319       .  A
C1942      C1943   1.404       .  A
C1942      H1953   1.082       .  S
C1943      C1952   1.364       .  A
C1943      C1944   1.380       .  A
C1944      C1945   1.398       .  A
C1944      O1950   1.315       .  A
C1945      C1946   1.399       .  A
C1945      H1954   1.082       .  S
C1946      C1949   1.356       .  A
O1947      C1948   1.330       .  A
C1948      C1949   1.389       .  A
C1949      H1955   1.083       .  S
O1950      C1951   1.329       .  A
C1951      C1952   1.391       .  A
C1952      H1956   1.082       .  S
C1957      C1962   1.379       .  A
C1957      C1958   1.410       .  A
C1957      O1963   1.324       .  A
C1958      C1959   1.408       .  A
C1958      H1969   1.082       .  S
C1959      C1968   1.371       .  A
C1959      C1960   1.379       .  A
C1960      C1961   1.403       .  A
C1960      O1966   1.315       .  A
C1961      C1962   1.401       .  A
C1961      H1970   1.082       .  S
C1962      C1965   1.361       .  A
O1963      C1964   1.335       .  A
C1964      C1965   1.390       .  A
C1965      H1971   1.082       .  S
O1966      C1967   1.333       .  A
C1967      C1968   1.393       .  A
C1968      H1972   1.082       .  S
C1973      C1978   1.378       .  A
C1973      C1974   1.415       .  A
C1973      O1979   1.323       .  A
C1974      C1975   1.412       .  A
C1974      H1985   1.082       .  S
C1975      C1984   1.378       .  A
C1975      C1976   1.378       .  A
C1976      C1977   1.396       .  A
C1976      O1982   1.307       .  A
C1977      C1978   1.392       .  A
C1977      H1986   1.082       .  S
C1978      C1981   1.357       .  A
O1979      C1980   1.339       .  A
C1980      C1981   1.384       .  A
C1981      H1987   1.082       .  S
O1982      C1983   1.328       .  A
C1983      C1984   1.399       .  A
C1984      H1988   1.082       .  S
C1989      C1994   1.805       .  A
C1989      C1990   1.369       .  A
C1989      O1995   1.672       .  A
C1990      C1991   1.404       .  A
C1990      H2001   1.082       .  S
C1991      C2000   1.354       .  A
C1991      C1992   1.410       .  A
C1992      C1993   1.414       .  A
C1992      O1998   1.317       .  A
C1993      C1994   1.381       .  A
C1993      H2002   1.082       .  S
C1994      C1997   1.833       .  A
O1995      C1996   1.697       .  A
C1996      C1997   1.930       .  A
C1997      H2003   1.014       .  S
O1998      C1999   1.328       .  A
C1999      C2000   1.385       .  A
C2000      H2004   1.081       .  S
C2005      C2010   1.380       .  A
C2005      C2006   1.405       .  A
C2005      O2011   1.314       .  A
C2006      C2007   1.402       .  A
C2006      H2017   1.082       .  S
C2007      C2016   1.365       .  A
C2007      C2008   1.381       .  A
C2008      C2009   1.400       .  A
C2008      O2014   1.313       .  A
C2009      C2010   1.398       .  A
C2009      H2018   1.082       .  S
C2010      C2013   1.363       .  A
O2011      C2012   1.334       .  A
C2012      C2013   1.387       .  A
C2013      H2019   1.082       .  S
O2014      C2015   1.327       .  A
C2015      C2016   1.391       .  A
C2016      H2020   1.082       .  S
C2021      C2026   1.379       .  A
C2021      C2022   1.403       .  A
C2021      O2027   1.311       .  A
C2022      C2023   1.399       .  A
C2022      H2033   1.083       .  S
C2023      C2032   1.366       .  A
C2023      C2024   1.379       .  A
C2024      C2025   1.407       .  A
C2024      O2030   1.315       .  A
C2025      C2026   1.404       .  A
C2025      H2034   1.082       .  S
C2026      C2029   1.371       .  A
O2027      C2028   1.330       .  A
C2028      C2029   1.393       .  A
C2029      H2035   1.082       .  S
O2030      C2031   1.332       .  A
C2031      C2032   1.390       .  A
C2032      H2036   1.082       .  S
C2037      C2042   1.381       .  A
C2037      C2038   1.401       .  A
C2037      O2043   1.322       .  A
C2038      C2039   1.403       .  A
C2038      H2049   1.082       .  S
C2039      C2048   1.355       .  A
C2039      C2040   1.380       .  A
C2040      C2041   1.402       .  A
C2040      O2046   1.321       .  A
C2041      C2042   1.404       .  A
C2041      H2050   1.082       .  S
C2042      C2045   1.356       .  A
O2043      C2044   1.329       .  A
C2044      C2045   1.393       .  A
C2045      H2051   1.083       .  S
O2046      C2047   1.331       .  A
C2047      C2048   1.393       .  A
C2048      H2052   1.082       .  S
C2053      C2058   1.379       .  A
C2053      C2054   1.397       .  A
C2053      O2059   1.310       .  A
C2054      C2055   1.395       .  A
C2054      H2065   1.082       .  S
C2055      C2064   1.358       .  A
C2055      C2056   1.378       .  A
C2056      C2057   1.414       .  A
C2056      O2062   1.323       .  A
C2057      C2058   1.411       .  A
C2057      H2066   1.082       .  S
C2058      C2061   1.376       .  A
O2059      C2060   1.329       .  A
C2060      C2061   1.396       .  A
C2061      H2067   1.082       .  S
O2062      C2063   1.338       .  A
C2063      C2064   1.388       .  A
C2064      H2068   1.082       .  S
C2069      C2074   1.380       .  A
C2069      C2070   1.401       .  A
C2069      O2075   1.317       .  A
C2070      C2071   1.401       .  A
C2070      H2081   1.082       .  S
C2071      C2080   1.362       .  A
C2071      C2072   1.380       .  A
C2072      C2073   1.409       .  A
C2072      O2078   1.323       .  A
C2073      C2074   1.408       .  A
C2073      H2082   1.082       .  S
C2074      C2077   1.369       .  A
O2075      C2076   1.329       .  A
C2076      C2077   1.394       .  A
C2077      H2083   1.082       .  S
O2078      C2079   1.333       .  A
C2079      C2080   1.392       .  A
C2080      H2084   1.083       .  S
C2085      C2090   1.380       .  A
C2085      C2086   1.407       .  A
C2085      O2091   1.318       .  A
C2086      C2087   1.406       .  A
C2086      H2097   1.082       .  S
C2087      C2096   1.369       .  A
C2087      C2088   1.378       .  A
C2088      C2089   1.404       .  A
C2088      O2094   1.317       .  A
C2089      C2090   1.401       .  A
C2089      H2098   1.082       .  S
C2090      C2093   1.364       .  A
O2091      C2092   1.332       .  A
C2092      C2093   1.390       .  A
C2093      H2099   1.083       .  S
O2094      C2095   1.334       .  A
C2095      C2096   1.398       .  A
C2096      H2100   1.082       .  S
C2101      C2106   1.378       .  A
C2101      C2102   1.412       .  A
C2101      O2107   1.320       .  A
C2102      C2103   1.409       .  A
C2102      H2113   1.082       .  S
C2103      C2112   1.375       .  A
C2103      C2104   1.379       .  A
C2104      C2105   1.398       .  A
C2104      O2110   1.310       .  A
C2105      C2106   1.395       .  A
C2105      H2114   1.082       .  S
C2106      C2109   1.359       .  A
O2107      C2108   1.337       .  A
C2108      C2109   1.387       .  A
C2109      H2115   1.082       .  S
O2110      C2111   1.330       .  A
C2111      C2112   1.396       .  A
C2112      H2116   1.082       .  S
C2117      C2122   1.379       .  A
C2117      C2118   1.415       .  A
C2117      O2123   1.328       .  A
C2118      C2119   1.414       .  A
C2118      H2129   1.082       .  S
C2119      C2128   1.375       .  A
C2119      C2120   1.379       .  A
C2120      C2121   1.397       .  A
C2120      O2126   1.313       .  A
C2121      C2122   1.396       .  A
C2121      H2130   1.082       .  S
C2122      C2125   1.355       .  A
O2123      C2124   1.338       .  A
C2124      C2125   1.387       .  A
C2125      H2131   1.083       .  S
O2126      C2127   1.329       .  A
C2127      C2128   1.399       .  A
C2128      H2132   1.082       .  S
C2133      C2138   1.379       .  A
C2133      C2134   1.410       .  A
C2133      O2139   1.316       .  A
C2134      C2135   1.406       .  A
C2134      H2145   1.082       .  S
C2135      C2144   1.374       .  A
C2135      C2136   1.378       .  A
C2136      C2137   1.400       .  A
C2136      O2142   1.309       .  A
C2137      C2138   1.396       .  A
C2137      H2146   1.082       .  S
C2138      C2141   1.363       .  A
O2139      C2140   1.335       .  A
C2140      C2141   1.388       .  A
C2141      H2147   1.082       .  S
O2142      C2143   1.330       .  A
C2143      C2144   1.397       .  A
C2144      H2148   1.082       .  S
C2149      C2154   1.380       .  A
C2149      C2150   1.406       .  A
C2149      O2155   1.318       .  A
C2150      C2151   1.404       .  A
C2150      H2161   1.082       .  S
C2151      C2160   1.368       .  A
C2151      C2152   1.378       .  A
C2152      C2153   1.404       .  A
C2152      O2158   1.314       .  A
C2153      C2154   1.401       .  A
C2153      H2162   1.083       .  S
C2154      C2157   1.363       .  A
O2155      C2156   1.331       .  A
C2156      C2157   1.392       .  A
C2157      H2163   1.082       .  S
O2158      C2159   1.332       .  A
C2159      C2160   1.394       .  A
C2160      H2164   1.082       .  S
C2165      C2170   1.387       .  A
C2165      C2166   1.412       .  A
C2165      O2171   1.303       .  A
C2166      C2167   1.401       .  A
C2166      H2177   1.082       .  S
C2167      C2176   1.369       .  A
C2167      C2168   1.366       .  A
C2168      C2169   1.392       .  A
C2168      O2174   1.318       .  A
C2169      C2170   1.419       .  A
C2169      H2178   1.062       .  S
C2170      C2173   1.436       .  A
O2171      C2172   1.323       .  A
C2172      C2173   1.471       .  A
C2173      H2179   2.733       .  S
O2174      C2175   1.328       .  A
C2175      C2176   1.399       .  A
C2176      H2180   1.081       .  S
C2181      C2186   1.380       .  A
C2181      C2182   1.401       .  A
C2181      O2187   1.320       .  A
C2182      C2183   1.402       .  A
C2182      H2193   1.082       .  S
C2183      C2192   1.358       .  A
C2183      C2184   1.380       .  A
C2184      C2185   1.408       .  A
C2184      O2190   1.325       .  A
C2185      C2186   1.408       .  A
C2185      H2194   1.082       .  S
C2186      C2189   1.364       .  A
O2187      C2188   1.330       .  A
C2188      C2189   1.397       .  A
C2189      H2195   1.082       .  S
O2190      C2191   1.334       .  A
C2191      C2192   1.388       .  A
C2192      H2196   1.083       .  S
C2197      C2202   1.379       .  A
C2197      C2198   1.410       .  A
C2197      O2203   1.325       .  A
C2198      C2199   1.410       .  A
C2198      H2209   1.082       .  S
C2199      C2208   1.370       .  A
C2199      C2200   1.380       .  A
C2200      C2201   1.400       .  A
C2200      O2206   1.316       .  A
C2201      C2202   1.399       .  A
C2201      H2210   1.082       .  S
C2202      C2205   1.356       .  A
O2203      C2204   1.335       .  A
C2204      C2205   1.391       .  A
C2205      H2211   1.083       .  S
O2206      C2207   1.330       .  A
C2207      C2208   1.395       .  A
C2208      H2212   1.082       .  S
C2213      C2218   1.378       .  A
C2213      C2214   1.408       .  A
C2213      O2219   1.317       .  A
C2214      C2215   1.405       .  A
C2214      H2225   1.083       .  S
C2215      C2224   1.367       .  A
C2215      C2216   1.380       .  A
C2216      C2217   1.404       .  A
C2216      O2222   1.317       .  A
C2217      C2218   1.401       .  A
C2217      H2226   1.082       .  S
C2218      C2221   1.367       .  A
O2219      C2220   1.337       .  A
C2220      C2221   1.389       .  A
C2221      H2227   1.081       .  S
O2222      C2223   1.331       .  A
C2223      C2224   1.394       .  A
C2224      H2228   1.082       .  S
C2229      C2234   1.378       .  A
C2229      C2230   1.398       .  A
C2229      O2235   1.308       .  A
C2230      C2231   1.395       .  A
C2230      H2241   1.082       .  S
C2231      C2240   1.360       .  A
C2231      C2232   1.379       .  A
C2232      C2233   1.409       .  A
C2232      O2238   1.318       .  A
C2233      C2234   1.405       .  A
C2233      H2242   1.082       .  S
C2234      C2237   1.372       .  A
O2235      C2236   1.330       .  A
C2236      C2237   1.396       .  A
C2237      H2243   1.082       .  S
O2238      C2239   1.334       .  A
C2239      C2240   1.388       .  A
C2240      H2244   1.083       .  S
C2245      C2250   1.379       .  A
C2245      C2246   1.402       .  A
C2245      O2251   1.316       .  A
C2246      C2247   1.400       .  A
C2246      H2257   1.082       .  S
C2247      C2256   1.360       .  A
C2247      C2248   1.379       .  A
C2248      C2249   1.409       .  A
C2248      O2254   1.323       .  A
C2249      C2250   1.408       .  A
C2249      H2258   1.082       .  S
C2250      C2253   1.370       .  A
O2251      C2252   1.332       .  A
C2252      C2253   1.396       .  A
C2253      H2259   1.082       .  S
O2254      C2255   1.333       .  A
C2255      C2256   1.389       .  A
C2256      H2260   1.082       .  S
C2261      C2266   1.379       .  A
C2261      C2262   1.406       .  A
C2261      O2267   1.318       .  A
C2262      C2263   1.403       .  A
C2262      H2273   1.082       .  S
C2263      C2272   1.368       .  A
C2263      C2264   1.378       .  A
C2264      C2265   1.408       .  A
C2264      O2270   1.318       .  A
C2265      C2266   1.405       .  A
C2265      H2274   1.082       .  S
C2266      C2269   1.367       .  A
O2267      C2268   1.333       .  A
C2268      C2269   1.392       .  A
C2269      H2275   1.082       .  S
O2270      C2271   1.335       .  A
C2271      C2272   1.392       .  A
C2272      H2276   1.082       .  S
C2277      C2282   1.378       .  A
C2277      C2278   1.411       .  A
C2277      O2283   1.321       .  A
C2278      C2279   1.409       .  A
C2278      H2289   1.082       .  S
C2279      C2288   1.371       .  A
C2279      C2280   1.379       .  A
C2280      C2281   1.400       .  A
C2280      O2286   1.313       .  A
C2281      C2282   1.398       .  A
C2281      H2290   1.082       .  S
C2282      C2285   1.363       .  A
O2283      C2284   1.336       .  A
C2284      C2285   1.388       .  A
C2285      H2291   1.082       .  S
O2286      C2287   1.329       .  A
C2287      C2288   1.399       .  A
C2288      H2292   1.082       .  S
