geometry optimzed in LAMMPS
_audit_creation_date              2020-12-01 
_audit_creation_method            'lammps2cif' 
_symmetry_space_group_name_H-M    'P1' 
_symmetry_Int_Tables_number       1 
_symmetry_cell_setting            triclinic 
loop_ 
_symmetry_equiv_pos_as_xyz 
  x,y,z 
_cell_length_a                    43.36422104 
_cell_length_b                    42.953337031667495 
_cell_length_c                    37.9181970628486 
_cell_angle_alpha                 90.78827670785837 
_cell_angle_beta                  89.75682686763476 
_cell_angle_gamma                 121.80092173373957 
loop_ 
_atom_site_label 
_atom_site_type_symbol 
_atom_site_fract_x 
_atom_site_fract_y 
_atom_site_fract_z 
_atom_site_charge 
C1          C  0.24156690  0.36892914  0.14932591     0.79300
N2          N  0.23493729  0.39154180  0.13057895    -0.79000
C3          C  0.23352282  0.38975482  0.09500233     0.81700
N4          N  0.23987240  0.36569232  0.07773685    -0.79000
C5          C  0.24762494  0.34349984  0.09596907     0.81800
N6          N  0.24742398  0.34451575  0.13180033    -0.80700
C7          C  0.23798823  0.37369428  0.41459580     0.79300
N8          N  0.24399211  0.40400387  0.43273609    -0.79000
C9          C  0.24633339  0.40512867  0.46846298     0.81700
N10         N  0.24044116  0.37527738  0.48596389    -0.79000
C11         C  0.23397904  0.34499813  0.46809077     0.81800
N12         N  0.23343907  0.34441036  0.43245604    -0.80700
C13         C  0.08805290  0.35203528  0.40785526     0.79300
N14         N  0.11623645  0.38202749  0.42430807    -0.79000
C15         C  0.11707511  0.38411322  0.46003807     0.81700
N16         N  0.09080075  0.35682250  0.47880647    -0.79000
C17         C  0.06255263  0.32779361  0.46314212     0.81800
N18         N  0.06057543  0.32514868  0.42739607    -0.80700
C19         C  0.08483436  0.37195254  0.14566205     0.79300
N20         N  0.11262657  0.39974722  0.12745013    -0.79000
C21         C  0.10857902  0.40455453  0.09283915     0.81700
N22         N  0.07647862  0.38045135  0.07611018    -0.79000
C23         C  0.04867742  0.35195505  0.09394562     0.81800
N24         N  0.05345821  0.34791227  0.12852398    -0.80700
C25         C  0.08946864  0.23000969  0.16200108     0.79300
N26         N  0.06271547  0.23060257  0.14349516    -0.79000
C27         C  0.06387666  0.23135193  0.10769605     0.81700
N28         N  0.09168592  0.23232150  0.09093272    -0.79000
C29         C  0.11805611  0.23137665  0.10850183     0.81800
N30         N  0.11732415  0.23045269  0.14430241    -0.80700
C31         C  0.07900021  0.21013920  0.42813009     0.79300
N32         N  0.05050177  0.20576777  0.44757659    -0.79000
C33         C  0.04865320  0.19932892  0.48275682     0.81700
N34         N  0.07599476  0.19832289  0.49874638    -0.79000
C35         C  0.10499400  0.20352917  0.47993443     0.81800
N36         N  0.10663741  0.20986349  0.44479653    -0.80700
C37         C  0.36344933  0.10214925  0.41974362     0.79300
N38         N  0.38891924  0.13162869  0.43906938    -0.79000
C39         C  0.38558014  0.13181681  0.47471949     0.81700
N40         N  0.35738150  0.10278300  0.49067573    -0.79000
C41         C  0.33234073  0.07354810  0.47179931     0.81800
N42         N  0.33475208  0.07356356  0.43628597    -0.80700
C43         C  0.35881552  0.10245523  0.15568221     0.79300
N44         N  0.39019415  0.12849001  0.14033676    -0.79000
C45         C  0.39186927  0.13288200  0.10496648     0.81700
N46         N  0.36153093  0.11216122  0.08507377    -0.79000
C47         C  0.32999672  0.08621152  0.10022982     0.81800
N48         N  0.32880867  0.08109484  0.13553179    -0.80700
C49         C  0.36160889  0.27736144  0.14731960     0.79300
N50         N  0.33282857  0.27432991  0.12972082    -0.79000
C51         C  0.33338032  0.27634627  0.09398350     0.81700
N52         N  0.36286358  0.28086669  0.07582263    -0.79000
C53         C  0.39152659  0.28321358  0.09322976     0.81800
N54         N  0.39018257  0.28078389  0.12891614    -0.80700
C55         C  0.35148411  0.24580787  0.41032857     0.79300
N56         N  0.37568229  0.24105743  0.42884525    -0.79000
C57         C  0.37043084  0.23403520  0.46402314     0.81700
N58         N  0.34247375  0.23306194  0.48010706    -0.79000
C59         C  0.31994902  0.23992258  0.46266971     0.81800
N60         N  0.32409737  0.24628987  0.42759760    -0.80700
C61         C  0.18493339  0.09855540  0.41574159     0.79300
N62         N  0.19373495  0.07604986  0.43168720    -0.79000
C63         C  0.20122000  0.07949592  0.46666402     0.81700
N64         N  0.19853814  0.10442014  0.48611120    -0.79000
C65         C  0.18893735  0.12644636  0.47115834     0.81800
N66         N  0.18347335  0.12467742  0.43553381    -0.80700
C67         C  0.19044668  0.08972491  0.14961023     0.79300
N68         N  0.18842593  0.06121477  0.13100631    -0.79000
C69         C  0.19425711  0.06392227  0.09557834     0.81700
N70         N  0.20427490  0.09600689  0.07942462    -0.79000
C71         C  0.20718097  0.12480594  0.09791059     0.81800
N72         N  0.19969205  0.12132262  0.13284143    -0.80700
O73         O  0.21263984  0.30579529  0.51676624    -0.81100
O74         O  0.22447948  0.18417710  0.49541187    -0.81100
O75         O  0.28117806  0.26200592  0.47520329    -0.81100
O76         O  0.13461967  0.18813295  0.52217154    -0.81100
O77         O  0.28772623  0.22862832  0.51416216    -0.81200
O78         O  0.16606328  0.23997948  0.49717403    -0.81100
O79         O  0.17060886  0.15278471  0.51593813    -0.81100
O80         O  0.24430134  0.29747872  0.47704679    -0.81100
C81         C  0.22901293  0.31391573  0.48751167     1.08600
C82         C  0.19361550  0.15665138  0.49334296     1.08500
C83         C  0.29420585  0.24305287  0.48412743     1.08600
C84         C  0.13702374  0.20997110  0.49924703     1.08500
O85         O  0.15816495  0.26093387  0.06289573    -0.81100
O86         O  0.26934178  0.24259583  0.08143385    -0.81200
O87         O  0.26811257  0.32232344  0.04831909    -0.81100
O88         O  0.20324540  0.17777897  0.08542556    -0.81100
O89         O  0.24513304  0.17170653  0.05826563    -0.81100
O90         O  0.22602473  0.28155371  0.08240056    -0.81100
O91         O  0.16409470  0.21846702  0.08988320    -0.81100
O92         O  0.30600434  0.28683922  0.04584917    -0.81100
Co93       Co  0.19456766  0.25755539  0.04062837     1.51500
Co94       Co  0.24222558  0.21087657  0.03969358     1.51700
Co95       Co  0.27117518  0.28841398  0.01209331     1.51600
Co96       Co  0.17485200  0.19066691  0.05042566     1.51500
O97         O  0.22352102  0.23970208  0.02473429    -1.43000
C98         C  0.14873093  0.23747857  0.08701800     1.08500
C99         C  0.30091595  0.26940186  0.07414727     1.08600
C100        C  0.24962574  0.31453380  0.07654327     1.08500
C101        C  0.21894814  0.15946464  0.07978091     1.08500
O102        O  0.00854076  0.28857920  0.08503452    -0.81100
O103        O  0.43085342  0.19559011  0.09514117    -0.81100
O104        O  0.42994209  0.28984975  0.04329528    -0.81100
O105        O  0.50751571  0.21579068  0.08068685    -0.81100
O106        O  0.42513591  0.25510189  0.08729874    -0.81200
O107        O  0.05644850  0.26804349  0.06860572    -0.81100
O108        O  0.43810867  0.15908581  0.06172186    -0.81100
O109        O  0.50679981  0.32502212  0.04517450    -0.81100
C110        C  0.01813898  0.32034382  0.07471318     1.08600
C111        C  0.42391791  0.16381910  0.08877702     1.08500
C112        C  0.41837491  0.27763704  0.07423348     1.08600
C113        C  0.04095812  0.23878248  0.08587862     1.08500
O114        O  0.02492794  0.23326097  0.50795094    -0.81100
O115        O  0.38862772  0.22522098  0.51928520    -0.81200
O116        O  0.50140151  0.28576013  0.47687713    -0.81100
O117        O  0.44381728  0.18210222  0.49130957    -0.81100
O118        O  0.39616734  0.16818643  0.52487760    -0.81100
O119        O  0.04250497  0.30115215  0.51803402    -0.81100
O120        O  0.49720105  0.17381304  0.52158448    -0.81100
O121        O  0.42985840  0.25161843  0.47783601    -0.81100
Co122      Co  0.01276134  0.25804632  0.04857798     1.51500
Co123      Co  0.41303841  0.21276966  0.05706856     1.51700
Co124      Co  0.46703564  0.28566311  0.01228341     1.51600
Co125      Co  0.47596702  0.20214591  0.03394213     1.51500
O126        O  0.46260309  0.24091171  0.03617195    -1.43000
C127        C  0.02224871  0.20195583  0.50483567     1.08500
C128        C  0.39740555  0.23506316  0.48738343     1.08600
C129        C  0.03424051  0.30243807  0.48650173     1.08500
C130        C  0.40990453  0.16328781  0.49705051     1.08500
O131        O  0.19692498  0.39591587  0.05309507    -0.81100
O132        O  0.21983729  0.02931650  0.07861212    -0.81100
O133        O  0.27864577  0.02831171  0.08175163    -0.81100
O134        O  0.13392143  0.44457841  0.04443015    -0.81100
O135        O  0.28871849  0.07873313  0.05522303    -0.81200
O136        O  0.17205224  0.43965134  0.07823160    -0.81100
O137        O  0.17376142  0.02134677  0.04738117    -0.81100
O138        O  0.23828536  0.44680851  0.08069519    -0.81100
C139        C  0.22267840  0.41174542  0.07526540     1.08600
C140        C  0.19408648  0.03454540  0.07461718     1.08500
C141        C  0.29783466  0.06360590  0.07810387     1.08600
C142        C  0.14008358  0.43237419  0.07207068     1.08500
O143        O  0.15260058  0.40683442  0.50995206    -0.81100
O144        O  0.27237922  0.04612554  0.48973762    -0.81200
O145        O  0.26789733  0.45242874  0.51170148    -0.81100
O146        O  0.19458764  0.02225906  0.47404230    -0.81100
O147        O  0.22836245  0.06514658  0.51255187    -0.81100
O148        O  0.21553769  0.43154261  0.48938582    -0.81100
O149        O  0.15770762  0.44731224  0.47198070    -0.81100
O150        O  0.30371043  0.02629789  0.51289097    -0.81100
Co151      Co  0.19801151  0.43767231  0.03530479     1.51500
Co152      Co  0.24783975  0.03625492  0.03486481     1.51700
Co153      Co  0.26512032  0.48825270  0.04422133     1.51600
Co154      Co  0.16761365  0.48369060  0.01036756     1.51500
O155        O  0.21578000  0.48640085  0.02137328    -1.43000
C156        C  0.14489091  0.41442920  0.48049584     1.08500
C157        C  0.30069299  0.04560717  0.49036093     1.08600
C158        C  0.24461771  0.43289339  0.48890812     1.08500
C159        C  0.20965107  0.05501359  0.48438544     1.08500
C160        C  0.17977741  0.09574206  0.37672447    -0.20800
C161        C  0.16531520  0.06165869  0.35877914     0.35400
C162        C  0.16580805  0.06052010  0.32171869    -0.26800
C163        C  0.18026129  0.09256437  0.30196267     0.01800
C164        C  0.19318605  0.12642505  0.31968290     0.26600
C165        C  0.19248392  0.12761280  0.35686786    -0.25900
N166        N  0.15017870  0.02824195  0.37825378    -0.83300
H167        H  0.15497467  0.03443969  0.30808003     0.12400
C168        C  0.18170740  0.09015116  0.26276931     0.01800
N169        N  0.20789860  0.15957313  0.29985928    -0.81900
H170        H  0.20351077  0.15376004  0.37040014     0.17300
C171        C  0.16506458  0.10394120  0.24186112    -0.26700
C172        C  0.16679554  0.10324560  0.20485151     0.35300
C173        C  0.18492725  0.08769024  0.18829045    -0.20800
C174        C  0.20040937  0.07263101  0.20910897    -0.26000
C175        C  0.19964928  0.07436405  0.24618568     0.26700
H176        H  0.15082433  0.11551666  0.25454017     0.12400
N177        N  0.15020930  0.11829396  0.18401554    -0.83300
H178        H  0.21464396  0.06105437  0.19641920     0.17300
N179        N  0.21797899  0.06120908  0.26704272    -0.81900
H180        H  0.13830995  0.12898414  0.20021109     0.32900
H181        H  0.12919406  0.09678303  0.16943179     0.37400
H182        H  0.22974471  0.05038645  0.25089462     0.32900
H183        H  0.23931340  0.08379499  0.28035492     0.29600
H184        H  0.21577526  0.18206856  0.31665125     0.32900
H185        H  0.23136759  0.16398545  0.28729703     0.29600
H186        H  0.12737217  0.02459271  0.39161059     0.37400
H187        H  0.14101501  0.00570970  0.36118700     0.32900
C188        C  0.36076168  0.27366842  0.18605877    -0.20800
C189        C  0.34997447  0.29270426  0.20850615     0.35400
C190        C  0.35018608  0.28858583  0.24524192    -0.26800
C191        C  0.36067630  0.26565861  0.25971024     0.01800
C192        C  0.37060128  0.24596364  0.23731892     0.26600
C193        C  0.37111537  0.25063700  0.20069495    -0.25900
N194        N  0.33930024  0.31638981  0.19397070    -0.83300
H195        H  0.34203540  0.30315441  0.26270401     0.12400
C196        C  0.35921755  0.26091724  0.29832263     0.01800
N197        N  0.37883801  0.22038233  0.25181560    -0.81900
H198        H  0.37885253  0.23559981  0.18339859     0.17300
C199        C  0.32625589  0.23475150  0.31355784    -0.26700
C200        C  0.32345664  0.22912749  0.35009510     0.35300
C201        C  0.35431704  0.25012103  0.37170760    -0.20800
C202        C  0.38747644  0.27605920  0.35640157    -0.26000
C203        C  0.39014359  0.28198693  0.31979068     0.26700
H204        H  0.30268424  0.21865741  0.29680329     0.12400
N205        N  0.28950428  0.20190274  0.36536403    -0.83300
H206        H  0.41100696  0.29232803  0.37314549     0.17300
N207        N  0.42369535  0.30998120  0.30448937    -0.81900
H208        H  0.26968631  0.18878398  0.34579419     0.32900
H209        H  0.29311800  0.18182475  0.37627706     0.37400
H210        H  0.44351765  0.32354976  0.32400200     0.32900
H211        H  0.43303090  0.29721172  0.28768838     0.29600
H212        H  0.38446352  0.20719343  0.23167899     0.32900
H213        H  0.40249602  0.23514267  0.26684520     0.29600
H214        H  0.36198354  0.33794456  0.18163528     0.37400
H215        H  0.33190002  0.32811989  0.21406232     0.32900
C216        C  0.36523943  0.10178874  0.38084395    -0.20800
C217        C  0.35027316  0.06837632  0.36164908     0.35400
C218        C  0.34916331  0.06870918  0.32476110    -0.26800
C219        C  0.36307628  0.10161982  0.30680681     0.01800
C220        C  0.37894871  0.13508681  0.32558096     0.26600
C221        C  0.37996211  0.13488829  0.36258177    -0.25900
N222        N  0.33648428  0.03427836  0.37963224    -0.83300
H223        H  0.33746736  0.04322654  0.30984815     0.12400
C224        C  0.36135157  0.10050072  0.26810588     0.01800
N225        N  0.39325359  0.16890367  0.30696983    -0.81900
H226        H  0.39133269  0.16050591  0.37718128     0.17300
C227        C  0.33222864  0.09965842  0.25130367    -0.26700
C228        C  0.32983246  0.09866124  0.21435523     0.35300
C229        C  0.35745544  0.09891864  0.19423330    -0.20800
C230        C  0.38629465  0.09927560  0.21127050    -0.26000
C231        C  0.38841338  0.09987680  0.24814425     0.26700
H232        H  0.31150831  0.09998683  0.26710416     0.12400
N233        N  0.30063082  0.09935211  0.19734087    -0.83300
H234        H  0.40742594  0.09949860  0.19569420     0.17300
N235        N  0.41788408  0.09995940  0.26548666    -0.81900
H236        H  0.28455293  0.10238428  0.21601325     0.32900
H237        H  0.28390697  0.07376076  0.18528816     0.37400
H238        H  0.43538969  0.09915766  0.24693221     0.32900
H239        H  0.43298628  0.12481436  0.27923240     0.29600
H240        H  0.40347793  0.19105458  0.32471015     0.32900
H241        H  0.41522842  0.17276314  0.29194353     0.29600
H242        H  0.35836095  0.03528540  0.39227640     0.37400
H243        H  0.32606814  0.01234202  0.36164249     0.32900
C244        C  0.08068699  0.21578548  0.38919400    -0.20800
C245        C  0.06157064  0.22975062  0.37195604     0.35400
C246        C  0.06458258  0.23436462  0.33513359    -0.26800
C247        C  0.08534768  0.22447756  0.31488431     0.01800
C248        C  0.10471661  0.21097445  0.33196934     0.26600
C249        C  0.10247362  0.20715729  0.36880354    -0.25900
N250        N  0.03969309  0.23987326  0.39165552    -0.83300
H251        H  0.05024117  0.24534163  0.32201224     0.12400
C252        C  0.08594934  0.22748904  0.27574597     0.01800
N253        N  0.12615240  0.20060746  0.31177415    -0.81900
H254        H  0.11726080  0.19647956  0.38153616     0.17300
C255        C  0.11932725  0.24811107  0.25836841    -0.26700
C256        C  0.12122917  0.24992496  0.22134650     0.35300
C257        C  0.08894967  0.23051894  0.20116957    -0.20800
C258        C  0.05546753  0.21124718  0.21863460    -0.26000
C259        C  0.05360772  0.20926635  0.25564883     0.26700
H260        H  0.14403869  0.26284730  0.27384358     0.12400
N261        N  0.15574413  0.27178852  0.20428308    -0.83300
H262        H  0.03063997  0.19678289  0.20328990     0.17300
N263        N  0.01903029  0.18846342  0.27284454    -0.81900
H264        H  0.17675462  0.28391416  0.22297488     0.31100
H265        H  0.15565138  0.29318111  0.19169828     0.37400
H266        H  0.99795785  0.17726965  0.25435228     0.32900
H267        H  0.01814482  0.16642357  0.28530854     0.29600
H268        H  0.13897733  0.19151013  0.32828867     0.32900
H269        H  0.10845891  0.17834683  0.29560272     0.29600
H270        H  0.01616331  0.21563090  0.39922715     0.37400
H271        H  0.52909525  0.25051156  0.37502119     0.32900
C272        C  0.08751095  0.34902031  0.36903485    -0.20800
C273        C  0.05548866  0.33720096  0.34947783     0.35400
C274        C  0.05700312  0.33751288  0.31248020    -0.26800
C275        C  0.08976792  0.34924012  0.29481639     0.01800
C276        C  0.12126427  0.35904248  0.31428709     0.26600
C277        C  0.11994236  0.35923109  0.35128885    -0.25900
N278        N  0.02195267  0.32634774  0.36716592    -0.83300
H279        H  0.03286185  0.33000307  0.29731683     0.12400
C280        C  0.09115939  0.35404640  0.25614618     0.01800
N281        N  0.15444262  0.36911994  0.29633127    -0.81900
H282        H  0.14431632  0.36744857  0.36637260     0.17300
C283        C  0.11264273  0.38938085  0.24252371    -0.26700
C284        C  0.11155700  0.39602962  0.20651201     0.35300
C285        C  0.08882199  0.36644145  0.18354832    -0.20800
C286        C  0.06835252  0.33082633  0.19721679    -0.26000
C287        C  0.06931397  0.32438244  0.23327811     0.26700
H288        H  0.12918851  0.41211230  0.26039138     0.12400
N289        N  0.13237585  0.43284132  0.19360730    -0.83300
H290        H  0.05130918  0.30789232  0.17975161     0.17300
N291        N  0.04801166  0.28794799  0.24692548    -0.81900
H292        H  0.14804466  0.45119276  0.21384930     0.32900
H293        H  0.11408890  0.44022078  0.18558055     0.37400
H294        H  0.03369760  0.26907270  0.22667041     0.32900
H295        H  0.06610817  0.28124217  0.25724295     0.29600
H296        H  0.17520815  0.37608031  0.31452125     0.32900
H297        H  0.15026488  0.34598465  0.28243323     0.29600
H298        H  0.02517773  0.34939571  0.38039212     0.37400
H299        H  0.50094858  0.31151176  0.34715018     0.32900
C300        C  0.24101760  0.36995969  0.18853889    -0.20800
C301        C  0.23012190  0.39129640  0.20747568     0.35400
C302        C  0.23039007  0.39157402  0.24430382    -0.26800
C303        C  0.24098489  0.37089209  0.26294886     0.01800
C304        C  0.25154234  0.34930100  0.24459122     0.26600
C305        C  0.25141952  0.34900456  0.20756556    -0.25900
N306        N  0.21832310  0.41250746  0.18976705    -0.83300
H307        H  0.22194752  0.40791800  0.25849535     0.12400
C308        C  0.24032553  0.37187944  0.30178825     0.01800
N309        N  0.26256393  0.32801457  0.26364185    -0.81900
H310        H  0.25974773  0.33246393  0.19363520     0.17300
C311        C  0.21709482  0.33952439  0.31983858    -0.26700
C312        C  0.21489677  0.33951287  0.35671555     0.35300
C313        C  0.23689723  0.37263757  0.37576367    -0.20800
C314        C  0.25948935  0.40512871  0.35751217    -0.26000
C315        C  0.26161030  0.40504653  0.32065251     0.26700
H316        H  0.20023375  0.31435510  0.30498817     0.12400
N317        N  0.19007325  0.30619405  0.37472071    -0.83300
H318        H  0.27638354  0.43048617  0.37209036     0.17300
N319        N  0.28563619  0.43832784  0.30225376    -0.81900
H320        H  0.17627841  0.28441750  0.35676835     0.32900
H321        H  0.17043629  0.30985347  0.38678657     0.37400
H322        H  0.29928670  0.46034626  0.32002884     0.32900
H323        H  0.30541143  0.43511934  0.28996728     0.29600
H324        H  0.26921109  0.31339205  0.24624571     0.32900
H325        H  0.28630958  0.34631142  0.27753606     0.29600
H326        H  0.23511267  0.43991232  0.19770860     0.37400
H327        H  0.19189522  0.40356181  0.19791314     0.32900
C328        C  0.24161397  0.36911535  0.64941031     0.79300
N329        N  0.23510494  0.39178157  0.63059699    -0.79000
C330        C  0.23380968  0.38996113  0.59501290     0.81700
N331        N  0.24025591  0.36591091  0.57786526    -0.79000
C332        C  0.24796204  0.34375106  0.59622122     0.81800
N333        N  0.24760336  0.34475319  0.63202328    -0.80700
C334        C  0.23806730  0.37384937  0.91448127     0.79300
N335        N  0.24383671  0.40396597  0.93282940    -0.79000
C336        C  0.24571113  0.40471738  0.96857675     0.81700
N337        N  0.23954014  0.37466546  0.98589551    -0.79000
C338        C  0.23331089  0.34456159  0.96783823     0.81800
N339        N  0.23330080  0.34438430  0.93219450    -0.80700
C340        C  0.08806962  0.35165961  0.90772695     0.79300
N341        N  0.11602311  0.38172967  0.92434474    -0.79000
C342        C  0.11663341  0.38376675  0.96007678     0.81700
N343        N  0.09034805  0.35635662  0.97871117    -0.79000
C344        C  0.06232097  0.32723944  0.96290937     0.81800
N345        N  0.06058754  0.32461969  0.92715000    -0.80700
C346        C  0.08576569  0.37255329  0.64567501     0.79300
N347        N  0.11349107  0.40031640  0.62738493    -0.79000
C348        C  0.10926793  0.40509836  0.59280950     0.81700
N349        N  0.07703561  0.38106389  0.57623567    -0.79000
C350        C  0.04927416  0.35263274  0.59418161     0.81800
N351        N  0.05426338  0.34855630  0.62870242    -0.80700
C352        C  0.08969331  0.22989530  0.66203825     0.79300
N353        N  0.06307081  0.23084055  0.64364456    -0.79000
C354        C  0.06454023  0.23233083  0.60787526     0.81700
N355        N  0.09248181  0.23362925  0.59105804    -0.79000
C356        C  0.11865357  0.23224763  0.60853060     0.81800
N357        N  0.11762323  0.23057770  0.64427908    -0.80700
C358        C  0.07827398  0.20863963  0.92799180     0.79300
N359        N  0.04982419  0.20441697  0.94739874    -0.79000
C360        C  0.04803875  0.19820861  0.98261194     0.81700
N361        N  0.07539192  0.19728664  0.99867912    -0.79000
C362        C  0.10434090  0.20233588  0.97988866     0.81800
N363        N  0.10592704  0.20844997  0.94471315    -0.80700
C364        C  0.36475060  0.10239965  0.92006718     0.79300
N365        N  0.38987083  0.13204243  0.93947528    -0.79000
C366        C  0.38612416  0.13236853  0.97507868     0.81700
N367        N  0.35784582  0.10327381  0.99091853    -0.79000
C368        C  0.33314705  0.07385369  0.97197236     0.81800
N369        N  0.33600061  0.07374304  0.93649672    -0.80700
C370        C  0.35884302  0.10159491  0.65571572     0.79300
N371        N  0.39008873  0.12766860  0.64017829    -0.79000
C372        C  0.39140679  0.13227398  0.60484437     0.81700
N373        N  0.36087111  0.11172544  0.58518335    -0.79000
C374        C  0.32945786  0.08573789  0.60047027     0.81800
N375        N  0.32860414  0.08039617  0.63574156    -0.80700
C376        C  0.36187231  0.27607096  0.64739866     0.79300
N377        N  0.33307800  0.27335089  0.63008764    -0.79000
C378        C  0.33359282  0.27590179  0.59438123     0.81700
N379        N  0.36303392  0.28063205  0.57597420    -0.79000
C380        C  0.39170102  0.28270107  0.59308402     0.81800
N381        N  0.39040189  0.27975717  0.62872714    -0.80700
C382        C  0.35143725  0.24458790  0.91033730     0.79300
N383        N  0.37568932  0.24030241  0.92926830    -0.79000
C384        C  0.37051620  0.23399936  0.96452971     0.81700
N385        N  0.34257394  0.23331652  0.98032160    -0.79000
C386        C  0.31990891  0.23969040  0.96244760     0.81800
N387        N  0.32394267  0.24526154  0.92721939    -0.80700
C388        C  0.18510152  0.09812966  0.91582295     0.79300
N389        N  0.19401099  0.07571326  0.93175315    -0.79000
C390        C  0.20148313  0.07919323  0.96672796     0.81700
N391        N  0.19864043  0.10402056  0.98618786    -0.79000
C392        C  0.18890103  0.12593430  0.97121920     0.81800
N393        N  0.18349068  0.12416364  0.93559546    -0.80700
C394        C  0.18967117  0.08936617  0.64971377     0.79300
N395        N  0.18759690  0.06089173  0.63100523    -0.79000
C396        C  0.19351303  0.06371779  0.59560171     0.81700
N397        N  0.20367858  0.09588609  0.57955493    -0.79000
C398        C  0.20664368  0.12466950  0.59811558     0.81800
N399        N  0.19906230  0.12107580  0.63304948    -0.80700
O400        O  0.21182006  0.30511696  0.01638702    -0.81100
O401        O  0.22419637  0.18386391  0.99512659    -0.81100
O402        O  0.28079557  0.26164814  0.97459749    -0.81100
O403        O  0.13422573  0.18726064  0.02213914    -0.81100
O404        O  0.28746456  0.22851093  0.01373123    -0.81200
O405        O  0.16535189  0.23913419  0.99708550    -0.81100
O406        O  0.17052652  0.15218570  0.01604833    -0.81100
O407        O  0.24343603  0.29683746  0.97656179    -0.81100
C408        C  0.22817516  0.31328845  0.98710537     1.08600
C409        C  0.19345622  0.15613046  0.99332609     1.08500
C410        C  0.29393360  0.24280358  0.98364266     1.08600
C411        C  0.13644130  0.20901199  0.99920762     1.08500
O412        O  0.15882713  0.26171596  0.56299171    -0.81100
O413        O  0.26950780  0.24258754  0.58192502    -0.81200
O414        O  0.26877243  0.32270591  0.54884832    -0.81100
O415        O  0.20304648  0.17785104  0.58558710    -0.81100
O416        O  0.24495770  0.17165388  0.55864242    -0.81100
O417        O  0.22649801  0.28187181  0.58271165    -0.81100
O418        O  0.16446509  0.21905866  0.58996673    -0.81100
O419        O  0.30634443  0.28690056  0.54649492    -0.81100
Co420      Co  0.19513699  0.25813227  0.54084515     1.51500
Co421      Co  0.24242718  0.21105828  0.54006351     1.51700
Co422      Co  0.27174847  0.28879057  0.51266232     1.51600
Co423      Co  0.17505174  0.19117800  0.55049677     1.51500
O424        O  0.22397076  0.24012505  0.52505294    -1.43000
C425        C  0.14926145  0.23821508  0.58708075     1.08500
C426        C  0.30115262  0.26931240  0.57471310     1.08600
C427        C  0.25013861  0.31485527  0.57695566     1.08500
C428        C  0.21866093  0.15943903  0.58003691     1.08500
O429        O  0.00884998  0.28928872  0.58541995    -0.81100
O430        O  0.43034211  0.19496031  0.59470618    -0.81100
O431        O  0.42984592  0.28939824  0.54278190    -0.81100
O432        O  0.50679341  0.21503117  0.58045692    -0.81100
O433        O  0.42524093  0.25466561  0.58667978    -0.81200
O434        O  0.05687938  0.26894992  0.56889594    -0.81100
O435        O  0.43743611  0.15831067  0.56139119    -0.81100
O436        O  0.50669818  0.32433349  0.54461010    -0.81100
C437        C  0.01851818  0.32106039  0.57507819     1.08600
C438        C  0.42335524  0.16315521  0.58845884     1.08500
C439        C  0.41842056  0.27718811  0.57375859     1.08600
C440        C  0.04149421  0.23970644  0.58619149     1.08500
O441        O  0.02451669  0.23236372  0.00766738    -0.81100
O442        O  0.38872263  0.22558103  0.01995269    -0.81200
O443        O  0.50151182  0.28625740  0.97754591    -0.81100
O444        O  0.44423863  0.18295102  0.99167442    -0.81100
O445        O  0.39657911  0.16870412  0.02535189    -0.81100
O446        O  0.04220802  0.30035288  0.01768571    -0.81100
O447        O  0.49789129  0.17483739  0.02155051    -0.81100
O448        O  0.42998575  0.25194947  0.97853039    -0.81100
Co449      Co  0.01311823  0.25882556  0.54893288     1.51500
Co450      Co  0.41278258  0.21227596  0.55649442     1.51700
Co451      Co  0.46690790  0.28514597  0.51167928     1.51600
Co452      Co  0.47541492  0.20130587  0.53364141     1.51500
O453        O  0.46226495  0.24023369  0.53551792    -1.43000
C454        C  0.02168089  0.20097933  0.00458108     1.08500
C455        C  0.39751413  0.23532816  0.98804842     1.08600
C456        C  0.03398926  0.30172702  0.98615373     1.08500
C457        C  0.41033836  0.16392027  0.99746875     1.08500
O458        O  0.19758779  0.39626361  0.55274115    -0.81100
O459        O  0.21906046  0.02909202  0.57864792    -0.81100
O460        O  0.27789126  0.02797988  0.58188108    -0.81100
O461        O  0.13451069  0.44492652  0.54425448    -0.81100
O462        O  0.28808537  0.07853459  0.55558686    -0.81200
O463        O  0.17267794  0.43995741  0.57798713    -0.81100
O464        O  0.17318287  0.02136968  0.54725551    -0.81100
O465        O  0.23873833  0.44705585  0.58059841    -0.81100
C466        C  0.22314559  0.41200942  0.57511832     1.08600
C467        C  0.19337207  0.03440311  0.57458750     1.08500
C468        C  0.29714085  0.06328398  0.57840662     1.08600
C469        C  0.14072211  0.43276027  0.57189574     1.08500
O470        O  0.15195693  0.40645814  0.01015546    -0.81100
O471        O  0.27300487  0.04607376  0.98959961    -0.81200
O472        O  0.26734854  0.45208144  0.01176841    -0.81100
O473        O  0.19503753  0.02207495  0.97413401    -0.81100
O474        O  0.22890686  0.06508570  0.01248542    -0.81100
O475        O  0.21482795  0.43096434  0.98971116    -0.81100
O476        O  0.15713362  0.44696477  0.97217684    -0.81100
O477        O  0.30437749  0.02636228  0.01288086    -0.81100
Co478      Co  0.19865256  0.43805539  0.53503583     1.51500
Co479      Co  0.24717954  0.03618822  0.53496868     1.51700
Co480      Co  0.26555776  0.48853100  0.54416821     1.51600
Co481      Co  0.16815137  0.48402862  0.51017433     1.51500
O482        O  0.21628489  0.48674442  0.52123575    -1.43000
C483        C  0.14430907  0.41407582  0.98067025     1.08500
C484        C  0.30140450  0.04570492  0.99034672     1.08600
C485        C  0.24395362  0.43240854  0.98911731     1.08500
C486        C  0.21008187  0.05484180  0.98440725     1.08500
C487        C  0.17999240  0.09532930  0.87684716    -0.20800
C488        C  0.16471469  0.06110790  0.85901999     0.35400
C489        C  0.16507468  0.05982106  0.82195547    -0.26800
C490        C  0.18025369  0.09188525  0.80213004     0.01800
C491        C  0.19424644  0.12595437  0.81976718     0.26600
C492        C  0.19360373  0.12727890  0.85693601    -0.25900
N493        N  0.14887570  0.02771817  0.87863110    -0.83300
H494        H  0.15354655  0.03362562  0.80837535     0.12400
C495        C  0.18129811  0.08933161  0.76293419     0.01800
N496        N  0.20995722  0.15914039  0.79986264    -0.81900
H497        H  0.20536132  0.15353563  0.87042123     0.17300
C498        C  0.16493352  0.10359179  0.74227708    -0.26700
C499        C  0.16641715  0.10293753  0.70524858     0.35300
C500        C  0.18422071  0.08717122  0.68842223    -0.20800
C501        C  0.19936558  0.07159476  0.70900734    -0.26000
C502        C  0.19865465  0.07306840  0.74610230     0.26700
H503        H  0.15110267  0.11549630  0.75517711     0.12400
N504        N  0.14988116  0.11820547  0.68466509    -0.83300
H505        H  0.21328737  0.05977502  0.69612967     0.17300
N506        N  0.21643645  0.05914709  0.76672407    -0.81900
H507        H  0.13818941  0.12897933  0.70104203     0.32900
H508        H  0.12870078  0.09678398  0.67014628     0.37400
H509        H  0.22778188  0.04801489  0.75039852     0.32900
H510        H  0.23803805  0.08139023  0.78012897     0.29600
H511        H  0.21873786  0.18183666  0.81662174     0.32900
H512        H  0.23299542  0.16257022  0.78718352     0.29600
H513        H  0.12638496  0.02478037  0.89204765     0.37400
H514        H  0.13911400  0.00504820  0.86164234     0.32900
C515        C  0.36121571  0.27201430  0.68609386    -0.20800
C516        C  0.35108702  0.29132406  0.70892144     0.35400
C517        C  0.35135048  0.28684626  0.74558473    -0.26800
C518        C  0.36141729  0.26342692  0.75964174     0.01800
C519        C  0.37114231  0.24380893  0.73691108     0.26600
C520        C  0.37138163  0.24865388  0.70031803    -0.25900
N521        N  0.34110869  0.31572723  0.69483464    -0.83300
H522        H  0.34358410  0.30154218  0.76332191     0.12400
C523        C  0.35993596  0.25836692  0.79821099     0.01800
N524        N  0.37972050  0.21835425  0.75106459    -0.81900
H525        H  0.37886849  0.23360775  0.68274108     0.17300
C526        C  0.32724474  0.23136454  0.81326566    -0.26700
C527        C  0.32422149  0.22610879  0.84987239     0.35300
C528        C  0.35454331  0.24835878  0.87169788    -0.20800
C529        C  0.38753025  0.27489917  0.85655974    -0.26000
C530        C  0.39043517  0.28039346  0.81988553     0.26700
H531        H  0.30401822  0.21448495  0.79634494     0.12400
N532        N  0.29060534  0.19806876  0.86501588    -0.83300
H533        H  0.41070405  0.29196531  0.87346940     0.17300
N534        N  0.42378850  0.30882940  0.80467578    -0.81900
H535        H  0.27125309  0.18389792  0.84526123     0.32900
H536        H  0.29526819  0.17898892  0.87664705     0.37400
H537        H  0.44329984  0.32307131  0.82431196     0.32900
H538        H  0.43383935  0.29634804  0.78839976     0.29600
H539        H  0.38534967  0.20535616  0.73073524     0.32900
H540        H  0.40348138  0.23325736  0.76594127     0.29600
H541        H  0.36397250  0.33704186  0.68245054     0.37400
H542        H  0.33433945  0.32773689  0.71516708     0.32900
C543        C  0.36692676  0.10192266  0.88114984    -0.20800
C544        C  0.35215477  0.06845769  0.86207096     0.35400
C545        C  0.35107457  0.06862258  0.82515117    -0.26800
C546        C  0.36490838  0.10143181  0.80701394     0.01800
C547        C  0.38081672  0.13497838  0.82568188     0.26600
C548        C  0.38172556  0.13493537  0.86271538    -0.25900
N549        N  0.33847890  0.03446335  0.88021264    -0.83300
H550        H  0.33938218  0.04306968  0.81035974     0.12400
C551        C  0.36274993  0.10008748  0.76826692     0.01800
N552        N  0.39520632  0.16872589  0.80693535    -0.81900
H553        H  0.39302312  0.16061033  0.87719950     0.17300
C554        C  0.33323964  0.09877609  0.75178169    -0.26700
C555        C  0.33034196  0.09750029  0.71484108     0.35300
C556        C  0.35788564  0.09801665  0.69433140    -0.20800
C557        C  0.38710376  0.09879501  0.71105986    -0.26000
C558        C  0.38968961  0.09960986  0.74793972     0.26700
H559        H  0.31257965  0.09894245  0.76783141     0.12400
N560        N  0.30066500  0.09762733  0.69822028    -0.83300
H561        H  0.40817865  0.09919325  0.69523250     0.17300
N562        N  0.41949991  0.10002440  0.76490977    -0.81900
H563        H  0.28461443  0.10041941  0.71711004     0.32900
H564        H  0.28407347  0.07192980  0.68630704     0.37400
H565        H  0.43685858  0.09928608  0.74613550     0.32900
H566        H  0.43462967  0.12495847  0.77852847     0.29600
H567        H  0.40543988  0.19094690  0.82459276     0.32900
H568        H  0.41719310  0.17248638  0.79199633     0.29600
H569        H  0.36038166  0.03566536  0.89300268     0.37400
H570        H  0.32823308  0.01246317  0.86230750     0.32900
C571        C  0.07990193  0.21406073  0.88904547    -0.20800
C572        C  0.06077166  0.22794475  0.87169314     0.35400
C573        C  0.06383439  0.23246622  0.83487408    -0.26800
C574        C  0.08460901  0.22250681  0.81474832     0.01800
C575        C  0.10388471  0.20895890  0.83192642     0.26600
C576        C  0.10164858  0.20529687  0.86876570    -0.25900
N577        N  0.03884854  0.23809664  0.89127039    -0.83300
H578        H  0.04956393  0.24347133  0.82166182     0.12400
C579        C  0.08547191  0.22570000  0.77564929     0.01800
N580        N  0.12521809  0.19839919  0.81181999    -0.81900
H581        H  0.11640259  0.19463247  0.88159172     0.17300
C582        C  0.11898364  0.24646527  0.75852862    -0.26700
C583        C  0.12111949  0.24882835  0.72155175     0.35300
C584        C  0.08894811  0.22971040  0.70117227    -0.20800
C585        C  0.05535470  0.21015906  0.71839222    -0.26000
C586        C  0.05324806  0.20777989  0.75536494     0.26700
H587        H  0.14359934  0.26101873  0.77417858     0.12400
N588        N  0.15574026  0.27104285  0.70475408    -0.83300
H589        H  0.03062540  0.19593104  0.70288215     0.17300
N590        N  0.01854086  0.18696194  0.77233151    -0.81900
H591        H  0.17664911  0.28301762  0.72356147     0.31100
H592        H  0.15562380  0.29255632  0.69244832     0.37400
H593        H  0.99757349  0.17601575  0.75372418     0.32900
H594        H  0.01744736  0.16475308  0.78464271     0.29600
H595        H  0.13796563  0.18926964  0.82840378     0.32900
H596        H  0.10746051  0.17611357  0.79570743     0.29600
H597        H  0.01534215  0.21386477  0.89890530     0.37400
H598        H  0.53264615  0.25563436  0.87594540     0.32900
C599        C  0.08793195  0.34867912  0.86886583    -0.20800
C600        C  0.05579230  0.33514883  0.84894507     0.35400
C601        C  0.05771736  0.33571869  0.81195020    -0.26800
C602        C  0.09098678  0.34935997  0.79462409     0.01800
C603        C  0.12265314  0.36072871  0.81444638     0.26600
C604        C  0.12091374  0.36066866  0.85142117    -0.25900
N605        N  0.02164081  0.32230125  0.86622929    -0.83300
H606        H  0.03341918  0.32692857  0.79652804     0.12400
C607        C  0.09256027  0.35447969  0.75596830     0.01800
N608        N  0.15641443  0.37256819  0.79687261    -0.81900
H609        H  0.14542536  0.37011916  0.86672099     0.17300
C610        C  0.11259542  0.39011438  0.74269696    -0.26700
C611        C  0.11134048  0.39681787  0.70672166     0.35300
C612        C  0.08998426  0.36703829  0.68346119    -0.20800
C613        C  0.07101274  0.33121859  0.69673448    -0.26000
C614        C  0.07211239  0.32468751  0.73275708     0.26700
H615        H  0.12804165  0.41294318  0.76080297     0.12400
N616        N  0.13047190  0.43379489  0.69412893    -0.83300
H617        H  0.05503117  0.30820659  0.67897649     0.17300
N618        N  0.05231777  0.28802011  0.74602358    -0.81900
H619        H  0.14516238  0.45235924  0.71459208     0.32900
H620        H  0.11112182  0.43965476  0.68590797     0.37400
H621        H  0.03877374  0.26913123  0.72557304     0.32900
H622        H  0.07135446  0.28255995  0.75624042     0.29600
H623        H  0.17718912  0.38033044  0.81528332     0.32900
H624        H  0.15355855  0.35001076  0.78290583     0.29600
H625        H  0.02324150  0.34465842  0.87936626     0.37400
H626        H  0.50073317  0.31932581  0.84878005     0.32900
C627        C  0.24122200  0.37032289  0.68854103    -0.20800
C628        C  0.22753342  0.38925406  0.70732493     0.35400
C629        C  0.22878280  0.39055514  0.74412576    -0.26800
C630        C  0.24239657  0.37255544  0.76284256     0.01800
C631        C  0.25560879  0.35319950  0.74462160     0.26600
C632        C  0.25492308  0.35227598  0.70761319    -0.25900
N633        N  0.21157673  0.40660477  0.68946904    -0.83300
H634        H  0.21851479  0.40533735  0.75821378     0.12400
C635        C  0.24141696  0.37327552  0.80162987     0.01800
N636        N  0.26987946  0.33484700  0.76381047    -0.81900
H637        H  0.26546974  0.33765133  0.69371848     0.17300
C638        C  0.21919605  0.34045217  0.81935987    -0.26700
C639        C  0.21659467  0.33998579  0.85620324     0.35300
C640        C  0.23732512  0.37315853  0.87558792    -0.20800
C641        C  0.25883501  0.40612479  0.85758398    -0.26000
C642        C  0.26118816  0.40648199  0.82071243     0.26700
H643        H  0.20339902  0.31522725  0.80426169     0.12400
N644        N  0.19258713  0.30612050  0.87380854    -0.83300
H645        H  0.27466399  0.43156680  0.87233819     0.17300
N646        N  0.28384588  0.44026092  0.80250150    -0.81900
H647        H  0.17972032  0.28441247  0.85564070     0.32900
H648        H  0.17212296  0.30855720  0.88569976     0.37400
H649        H  0.29636247  0.46228313  0.82039404     0.32900
H650        H  0.30458406  0.43862562  0.79026965     0.29600
H651        H  0.27817017  0.32155274  0.74652367     0.32900
H652        H  0.29314632  0.35492276  0.77726404     0.29600
H653        H  0.22594863  0.43438272  0.69663799     0.37400
H654        H  0.18487861  0.39497817  0.69826659     0.32900
C655        C  0.24057960  0.86808432  0.14832789     0.79300
N656        N  0.23436090  0.89088680  0.12947135    -0.79000
C657        C  0.23387949  0.88958619  0.09391194     0.81700
N658        N  0.24088490  0.86594709  0.07677417    -0.79000
C659        C  0.24839221  0.84367254  0.09516649     0.81800
N660        N  0.24717603  0.84410121  0.13099262    -0.80700
C661        C  0.23897107  0.87475798  0.41328059     0.79300
N662        N  0.24444658  0.90474017  0.43164114    -0.79000
C663        C  0.24685161  0.90567953  0.46734500     0.81700
N664        N  0.24154942  0.87596460  0.48463581    -0.79000
C665        C  0.23558393  0.84596646  0.46660933     0.81800
N666        N  0.23495815  0.84554549  0.43094328    -0.80700
C667        C  0.08726127  0.85255401  0.40706326     0.79300
N668        N  0.11547116  0.88251991  0.42352524    -0.79000
C669        C  0.11657312  0.88436831  0.45925042     0.81700
N670        N  0.09051128  0.85686301  0.47800414    -0.79000
C671        C  0.06224745  0.82784761  0.46233086     0.81800
N672        N  0.06003270  0.82543518  0.42660027    -0.80700
C673        C  0.08494428  0.87261171  0.14473843     0.79300
N674        N  0.11300637  0.90010496  0.12653104    -0.79000
C675        C  0.10920232  0.90472592  0.09182087     0.81700
N676        N  0.07707051  0.88076830  0.07503896    -0.79000
C677        C  0.04901088  0.85259384  0.09295874     0.81800
N678        N  0.05356400  0.84871564  0.12760431    -0.80700
C679        C  0.09000650  0.73009439  0.16078908     0.79300
N680        N  0.06322759  0.73070133  0.14238817    -0.79000
C681        C  0.06470255  0.73223198  0.10664333     0.81700
N682        N  0.09282268  0.73392817  0.08980321    -0.79000
C683        C  0.11917534  0.73287827  0.10726682     0.81800
N684        N  0.11813866  0.73115307  0.14303616    -0.80700
C685        C  0.07887965  0.71120725  0.42709125     0.79300
N686        N  0.05027724  0.70640172  0.44665446    -0.79000
C687        C  0.04855040  0.69976940  0.48179556     0.81700
N688        N  0.07611048  0.69903591  0.49762866    -0.79000
C689        C  0.10521260  0.70471277  0.47869941     0.81800
N690        N  0.10673096  0.71123994  0.44363987    -0.80700
C691        C  0.36287574  0.60365013  0.42001911     0.79300
N692        N  0.38857933  0.63274404  0.43951593    -0.79000
C693        C  0.38558565  0.63239356  0.47519202     0.81700
N694        N  0.35750181  0.60319062  0.49106930    -0.79000
C695        C  0.33219172  0.57428308  0.47204071     0.81800
N696        N  0.33423428  0.57487013  0.43646712    -0.80700
C697        C  0.35859412  0.60352060  0.15580012     0.79300
N698        N  0.38990556  0.62918063  0.14010717    -0.79000
C699        C  0.39140877  0.63313770  0.10470342     0.81700
N700        N  0.36087548  0.61231941  0.08503171    -0.79000
C701        C  0.32934035  0.58666550  0.10049737     0.81800
N702        N  0.32838486  0.58202999  0.13589835    -0.80700
C703        C  0.36188125  0.77656023  0.14714716     0.79300
N704        N  0.33273173  0.77305269  0.12971990    -0.79000
C705        C  0.33319257  0.77528824  0.09392734     0.81700
N706        N  0.36285957  0.78045469  0.07566806    -0.79000
C707        C  0.39179733  0.78327463  0.09288664     0.81800
N708        N  0.39061803  0.78070789  0.12852763    -0.80700
C709        C  0.35149777  0.74325174  0.40981528     0.79300
N710        N  0.37556423  0.73881865  0.42888959    -0.79000
C711        C  0.37023530  0.73253833  0.46414194     0.81700
N712        N  0.34234705  0.73206894  0.47979315    -0.79000
C713        C  0.31991730  0.73867710  0.46179258     0.81800
N714        N  0.32407286  0.74418722  0.42653952    -0.80700
C715        C  0.18591775  0.59857303  0.41487465     0.79300
N716        N  0.19430195  0.57599497  0.43132084    -0.79000
C717        C  0.20093222  0.57932141  0.46647021     0.81700
N718        N  0.19781938  0.60422675  0.48553631    -0.79000
C719        C  0.18860852  0.62632365  0.47000287     0.81800
N720        N  0.18403231  0.62464115  0.43427470    -0.80700
C721        C  0.18781171  0.58958125  0.14870920     0.79300
N722        N  0.18588164  0.56097581  0.13045472    -0.79000
C723        C  0.19225514  0.56353873  0.09519239     0.81700
N724        N  0.20268185  0.59558127  0.07876874    -0.79000
C725        C  0.20547250  0.62451023  0.09688637     0.81800
N726        N  0.19746337  0.62119319  0.13173110    -0.80700
O727        O  0.21384490  0.80658095  0.51518248    -0.81100
O728        O  0.22374322  0.68458842  0.49319713    -0.81100
O729        O  0.28204526  0.76208038  0.47408448    -0.81100
O730        O  0.13483117  0.68899073  0.52054920    -0.81100
O731        O  0.28723257  0.72773967  0.51288425    -0.81200
O732        O  0.16642972  0.74093317  0.49568444    -0.81100
O733        O  0.17035712  0.65291542  0.51463072    -0.81100
O734        O  0.24590995  0.79840617  0.47575123    -0.81100
C735        C  0.23051226  0.81479417  0.48604440     1.08600
C736        C  0.19308617  0.65674017  0.49170494     1.08500
C737        C  0.29428070  0.74239033  0.48295814     1.08600
C738        C  0.13728884  0.71099921  0.49779445     1.08500
O739        O  0.15950342  0.76260655  0.06174690    -0.81100
O740        O  0.26911624  0.74166792  0.08068728    -0.81200
O741        O  0.26945702  0.82285488  0.04769915    -0.81100
O742        O  0.20290438  0.67817935  0.08420142    -0.81100
O743        O  0.24371400  0.67072040  0.05668879    -0.81100
O744        O  0.22702338  0.78195517  0.08130948    -0.81100
O745        O  0.16485595  0.71967846  0.08852111    -0.81100
O746        O  0.30632739  0.78627406  0.04569492    -0.81100
Co747      Co  0.19559907  0.75866623  0.03941001     1.51500
Co748      Co  0.24199003  0.71074484  0.03840610     1.51700
Co749      Co  0.27236162  0.78882816  0.01149906     1.51600
Co750      Co  0.17514922  0.69158913  0.04908851     1.51500
O751        O  0.22417579  0.74038748  0.02356957    -1.43000
C752        C  0.14982152  0.73898883  0.08576967     1.08500
C753        C  0.30082885  0.76850873  0.07386494     1.08600
C754        C  0.25073567  0.81492658  0.07576832     1.08500
C755        C  0.21782024  0.65915855  0.07849552     1.08500
O756        O  0.00878319  0.78926067  0.08441401    -0.81100
O757        O  0.43082040  0.69580990  0.09482026    -0.81100
O758        O  0.42981270  0.78990443  0.04263557    -0.81100
O759        O  0.50730771  0.71555280  0.07973782    -0.81100
O760        O  0.42583392  0.75576262  0.08684106    -0.81200
O761        O  0.05685056  0.76891018  0.06801449    -0.81100
O762        O  0.43759127  0.65905780  0.06124572    -0.81100
O763        O  0.50647947  0.82510323  0.04431168    -0.81100
C764        C  0.01836684  0.82097241  0.07392885     1.08600
C765        C  0.42353672  0.66392427  0.08835446     1.08500
C766        C  0.41872293  0.77801785  0.07375302     1.08600
C767        C  0.04157707  0.73954509  0.08511061     1.08500
O768        O  0.02495999  0.73350312  0.50751025    -0.81100
O769        O  0.38866910  0.72497356  0.51983982    -0.81200
O770        O  0.50132806  0.78567130  0.47698754    -0.81100
O771        O  0.44390304  0.68247359  0.49156600    -0.81100
O772        O  0.39650167  0.66831890  0.52563108    -0.81100
O773        O  0.04229450  0.80125575  0.51723050    -0.81100
O774        O  0.49778004  0.67440774  0.52095659    -0.81100
O775        O  0.42975041  0.75091382  0.47819347    -0.81100
Co776      Co  0.01308650  0.75869618  0.04810657     1.51500
Co777      Co  0.41303520  0.71311923  0.05688026     1.51700
Co778      Co  0.46680706  0.78559144  0.01160020     1.51600
Co779      Co  0.47543856  0.70201591  0.03322441     1.51500
O780        O  0.46239806  0.74094708  0.03567068    -1.43000
C781        C  0.02214518  0.70216352  0.50405454     1.08500
C782        C  0.39731092  0.73426351  0.48780498     1.08600
C783        C  0.03402747  0.80237104  0.48566016     1.08500
C784        C  0.41005256  0.66359775  0.49759353     1.08500
O785        O  0.19776516  0.89580875  0.05158192    -0.81100
O786        O  0.21817047  0.52903214  0.07917441    -0.81100
O787        O  0.27792681  0.52858606  0.08211748    -0.81100
O788        O  0.13489710  0.94506949  0.04375846    -0.81100
O789        O  0.28719550  0.57896662  0.05618377    -0.81200
O790        O  0.17269911  0.93921334  0.07719204    -0.81100
O791        O  0.17213154  0.52066812  0.04756387    -0.81100
O792        O  0.23854133  0.94651901  0.07986400    -0.81100
C793        C  0.22320529  0.91155439  0.07407852     1.08600
C794        C  0.19230577  0.53405326  0.07483011     1.08500
C795        C  0.29686788  0.56391719  0.07861689     1.08600
C796        C  0.14086155  0.93238540  0.07113963     1.08500
O797        O  0.15223202  0.90678948  0.50903717    -0.81100
O798        O  0.27233565  0.54685048  0.49034959    -0.81200
O799        O  0.26767690  0.95224830  0.51106293    -0.81100
O800        O  0.19423372  0.52207246  0.47441982    -0.81100
O801        O  0.22780653  0.56522082  0.51285905    -0.81100
O802        O  0.21535984  0.93130168  0.48849788    -0.81100
O803        O  0.15737579  0.94755447  0.47139569    -0.81100
O804        O  0.30368670  0.52670231  0.51290742    -0.81100
Co805      Co  0.19886889  0.93767593  0.03419256     1.51500
Co806      Co  0.24650848  0.53633821  0.03565303     1.51700
Co807      Co  0.26585613  0.98814420  0.04380987     1.51600
Co808      Co  0.16874226  0.98419434  0.00989675     1.51500
O809        O  0.21667676  0.98647029  0.02075128    -1.43000
C810        C  0.14449355  0.91459877  0.47972632     1.08500
C811        C  0.30060306  0.54622821  0.49066100     1.08600
C812        C  0.24460173  0.93293621  0.48805292     1.08500
C813        C  0.20916419  0.55488405  0.48463989     1.08500
C814        C  0.18137330  0.59583269  0.37583665    -0.20800
C815        C  0.16658697  0.56173045  0.35786606     0.35400
C816        C  0.16626731  0.56056904  0.32080429    -0.26800
C817        C  0.18070301  0.59265500  0.30110535     0.01800
C818        C  0.19489786  0.62665933  0.31889782     0.26600
C819        C  0.19456878  0.62782239  0.35606275    -0.25900
N820        N  0.15191215  0.52832681  0.37728470    -0.83300
H821        H  0.15482558  0.53443774  0.30711810     0.12400
C822        C  0.18115792  0.59019103  0.26189544     0.01800
N823        N  0.21057177  0.65995838  0.29916998    -0.81900
H824        H  0.20621867  0.65402134  0.36964201     0.17300
C825        C  0.16481750  0.60480468  0.24166330    -0.26700
C826        C  0.16577595  0.60410079  0.20459963     0.35300
C827        C  0.18289898  0.58782607  0.18740955    -0.20800
C828        C  0.19802580  0.57198751  0.20758926    -0.26000
C829        C  0.19794401  0.57358169  0.24463160     0.26700
H830        H  0.15144043  0.61700804  0.25490774     0.12400
N831        N  0.14943466  0.61981422  0.18438650    -0.83300
H832        H  0.21150751  0.55985791  0.19440411     0.17300
N833        N  0.21582072  0.55942596  0.26475772    -0.81900
H834        H  0.13825808  0.63091785  0.20103619     0.32900
H835        H  0.12789468  0.59857871  0.17004332     0.37400
H836        H  0.22666918  0.54801783  0.24812578     0.32900
H837        H  0.23777808  0.58159151  0.27787446     0.29600
H838        H  0.21990115  0.68260308  0.31611585     0.32900
H839        H  0.23332362  0.66320636  0.28602855     0.29600
H840        H  0.12929100  0.52454983  0.39108856     0.37400
H841        H  0.14258812  0.50580202  0.36016425     0.32900
C842        C  0.36157337  0.77270649  0.18590886    -0.20800
C843        C  0.35041894  0.79103005  0.20889007     0.35400
C844        C  0.35131642  0.78685268  0.24556809    -0.26800
C845        C  0.36300419  0.76468529  0.25949929     0.01800
C846        C  0.37405697  0.74630486  0.23663962     0.26600
C847        C  0.37362030  0.75082824  0.20005796    -0.25900
N848        N  0.33869187  0.81408478  0.19495360    -0.83300
H849        H  0.34260097  0.80065150  0.26340738     0.12400
C850        C  0.36128479  0.75906055  0.29800880     0.01800
N851        N  0.38473541  0.72242136  0.25067677    -0.81900
H852        H  0.38208212  0.73665099  0.18242551     0.17300
C853        C  0.32943449  0.72985693  0.31229610    -0.26700
C854        C  0.32600230  0.72394695  0.34880701     0.35300
C855        C  0.35516714  0.74759765  0.37127798    -0.20800
C856        C  0.38739855  0.77634090  0.35692996    -0.26000
C857        C  0.39061802  0.78258145  0.32037370     0.26700
H858        H  0.30710442  0.71185083  0.29486065     0.12400
N859        N  0.29309380  0.69400124  0.36320938    -0.83300
H860        H  0.40963398  0.79450179  0.37438130     0.17300
N861        N  0.42305322  0.81313377  0.30597689    -0.81900
H862        H  0.27444563  0.67914992  0.34308438     0.32900
H863        H  0.29944123  0.67608944  0.37476770     0.37400
H864        H  0.44172406  0.82814579  0.32605103     0.32900
H865        H  0.43514609  0.80269933  0.28971571     0.29600
H866        H  0.39124257  0.71020561  0.23028171     0.32900
H867        H  0.40843432  0.73846987  0.26538094     0.29600
H868        H  0.36086639  0.83592466  0.18233953     0.37400
H869        H  0.33136402  0.82550723  0.21540864     0.32900
C870        C  0.36470082  0.60384758  0.38110546    -0.20800
C871        C  0.34936526  0.57069866  0.36143967     0.35400
C872        C  0.34887598  0.57167339  0.32457749    -0.26800
C873        C  0.36381342  0.60493853  0.30706404     0.01800
C874        C  0.38000993  0.63815815  0.32629771     0.26600
C875        C  0.38036423  0.63732259  0.36330653    -0.25900
N876        N  0.33463788  0.53619600  0.37889960    -0.83300
H877        H  0.33688695  0.54638077  0.30931512     0.12400
C878        C  0.36238813  0.60420680  0.26835570     0.01800
N879        N  0.39520594  0.67235362  0.30817681    -0.81900
H880        H  0.39204914  0.66276313  0.37825965     0.17300
C881        C  0.33261457  0.60200187  0.25151923    -0.26700
C882        C  0.32976361  0.60002735  0.21458643     0.35300
C883        C  0.35762673  0.60074850  0.19446590    -0.20800
C884        C  0.38718203  0.60254882  0.21157399    -0.26000
C885        C  0.38970213  0.60401719  0.24844577     0.26700
H886        H  0.31159916  0.60178659  0.26729567     0.12400
N887        N  0.29971077  0.59908685  0.19756457    -0.83300
H888        H  0.40849383  0.60307884  0.19604504     0.17300
N889        N  0.41963463  0.60503485  0.26583447    -0.81900
H890        H  0.28343887  0.60190961  0.21616289     0.32900
H891        H  0.28347970  0.57305725  0.18617376     0.37400
H892        H  0.43722086  0.60432234  0.24731878     0.32900
H893        H  0.43446129  0.63012137  0.27924202     0.29600
H894        H  0.40548243  0.69424097  0.32623711     0.32900
H895        H  0.41726529  0.67604487  0.29341793     0.29600
H896        H  0.35606962  0.53639511  0.39161544     0.37400
H897        H  0.32397143  0.51452805  0.36058091     0.32900
C898        C  0.08045267  0.71679006  0.38812545    -0.20800
C899        C  0.05943782  0.72832307  0.37046080     0.35400
C900        C  0.06261095  0.73299294  0.33363402    -0.26800
C901        C  0.08521218  0.72523637  0.31373914     0.01800
C902        C  0.10635597  0.71406463  0.33127766     0.26600
C903        C  0.10406763  0.71043043  0.36809790    -0.25900
N904        N  0.03530930  0.73575752  0.38967895    -0.83300
H905        H  0.04691558  0.74226689  0.32023089     0.12400
C906        C  0.08591130  0.72795052  0.27452654     0.01800
N907        N  0.12965082  0.70579117  0.31156973    -0.81900
H908        H  0.12031749  0.70159525  0.38108336     0.17300
C909        C  0.11930196  0.74907186  0.25724505    -0.26700
C910        C  0.12143088  0.75042581  0.22022625     0.35300
C911        C  0.08933057  0.73033332  0.19992686    -0.20800
C912        C  0.05579927  0.71057405  0.21722092    -0.26000
C913        C  0.05373061  0.70884621  0.25423168     0.26700
H914        H  0.14387870  0.76455766  0.27279155     0.12400
N915        N  0.15598119  0.77256429  0.20329216    -0.83300
H916        H  0.03110611  0.69556460  0.20173931     0.17300
N917        N  0.01911137  0.68733528  0.27119442    -0.81900
H918        H  0.17686783  0.78522101  0.22206674     0.31100
H919        H  0.15553747  0.79356829  0.19027864     0.37400
H920        H  0.99819810  0.67556675  0.25254709     0.32900
H921        H  0.01882996  0.66571027  0.28389777     0.29600
H922        H  0.14369740  0.69838162  0.32840438     0.32900
H923        H  0.11315518  0.68292358  0.29552740     0.29600
H924        H  0.01297788  0.71053663  0.39723874     0.37400
H925        H  0.52334002  0.74496747  0.37314678     0.32900
C926        C  0.08651291  0.84979480  0.36824660    -0.20800
C927        C  0.05418862  0.83702324  0.34885980     0.35400
C928        C  0.05559405  0.83774980  0.31185347    -0.26800
C929        C  0.08852226  0.85069929  0.29408532     0.01800
C930        C  0.12030994  0.86134233  0.31337493     0.26600
C931        C  0.11911295  0.86121317  0.35033465    -0.25900
N932        N  0.02041922  0.82470333  0.36672285    -0.83300
H933        H  0.03120279  0.82948302  0.29679315     0.12400
C934        C  0.08976203  0.85550841  0.25546916     0.01800
N935        N  0.15364391  0.87246630  0.29525847    -0.81900
H936        H  0.14372739  0.87008817  0.36525977     0.17300
C937        C  0.11037633  0.89097204  0.24191180    -0.26700
C938        C  0.10984407  0.89734034  0.20576535     0.35300
C939        C  0.08849015  0.86739747  0.18269950    -0.20800
C940        C  0.06874334  0.83173766  0.19632754    -0.26000
C941        C  0.06923428  0.82552369  0.23250330     0.26700
H942        H  0.12594914  0.91391602  0.25986552     0.12400
N943        N  0.12983730  0.93414570  0.19274444    -0.83300
H944        H  0.05272246  0.80860369  0.17871086     0.17300
N945        N  0.04889109  0.78900151  0.24612587    -0.81900
H946        H  0.14446821  0.95284209  0.21313264     0.32900
H947        H  0.11102918  0.94045362  0.18378970     0.37400
H948        H  0.03542512  0.76993401  0.22577595     0.32900
H949        H  0.06752597  0.78326844  0.25689719     0.29600
H950        H  0.17458543  0.87972819  0.31332738     0.32900
H951        H  0.15003059  0.84970547  0.28106858     0.29600
H952        H  0.02272237  0.84717704  0.38029088     0.37400
H953        H  0.49891141  0.81235526  0.34826694     0.32900
C954        C  0.23929454  0.86893186  0.18741831    -0.20800
C955        C  0.22453424  0.88713056  0.20575225     0.35400
C956        C  0.22562911  0.88883524  0.24255564    -0.26800
C957        C  0.23988352  0.87169400  0.26167702     0.01800
C958        C  0.25380107  0.85274766  0.24391506     0.26600
C959        C  0.25347294  0.85161452  0.20690947    -0.25900
N960        N  0.20768016  0.90332902  0.18742392    -0.83300
H961        H  0.21484694  0.90331516  0.25630687     0.12400
C962        C  0.23917836  0.87304917  0.30043010     0.01800
N963        N  0.26845759  0.83505508  0.26359331    -0.81900
H964        H  0.26473517  0.83748471  0.19334590     0.17300
C965        C  0.21676048  0.84059686  0.31861649    -0.26700
C966        C  0.21521287  0.84058000  0.35551703     0.35300
C967        C  0.23720643  0.87377766  0.37444252    -0.20800
C968        C  0.25878894  0.90644772  0.35601265    -0.26000
C969        C  0.26008061  0.90637804  0.31907345     0.26700
H970        H  0.20020042  0.81529511  0.30385503     0.12400
N971        N  0.19108146  0.80714865  0.37369054    -0.83300
H972        H  0.27551439  0.93192376  0.37046989     0.17300
N973        N  0.28287237  0.93979240  0.30036481    -0.81900
H974        H  0.17720685  0.78533603  0.35579693     0.32900
H975        H  0.17143243  0.81044514  0.38625919     0.37400
H976        H  0.29635087  0.96195959  0.31800419     0.32900
H977        H  0.30287367  0.93736180  0.28752246     0.29600
H978        H  0.27721978  0.82192873  0.24660791     0.32900
H979        H  0.29145076  0.85547293  0.27707669     0.29600
H980        H  0.22124020  0.93115221  0.19433660     0.37400
H981        H  0.18085789  0.89098910  0.19606821     0.32900
C982        C  0.24089109  0.86873359  0.64821054     0.79300
N983        N  0.23427532  0.89116776  0.62922587    -0.79000
C984        C  0.23326506  0.88939273  0.59369021     0.81700
N985        N  0.24018434  0.86563627  0.57664203    -0.79000
C986        C  0.24809464  0.84369833  0.59513505     0.81800
N987        N  0.24738015  0.84460681  0.63098417    -0.80700
C988        C  0.23907303  0.87492234  0.91323787     0.79300
N989        N  0.24488799  0.90496061  0.93171506    -0.79000
C990        C  0.24731626  0.90578024  0.96740115     0.81700
N991        N  0.24171664  0.87590093  0.98458606    -0.79000
C992        C  0.23539616  0.84581793  0.96646988     0.81800
N993        N  0.23471905  0.84548775  0.93078117    -0.80700
C994        C  0.08769010  0.85247958  0.90710419     0.79300
N995        N  0.11589402  0.88239746  0.92364210    -0.79000
C996        C  0.11696962  0.88420660  0.95937334     0.81700
N997        N  0.09082346  0.85671325  0.97808905    -0.79000
C998        C  0.06252527  0.82775198  0.96235513     0.81800
N999        N  0.06040616  0.82537153  0.92661613    -0.80700
C1000       C  0.08443009  0.87308664  0.64474388     0.79300
N1001       N  0.11250464  0.90053237  0.62650858    -0.79000
C1002       C  0.10870463  0.90509436  0.59178496     0.81700
N1003       N  0.07658521  0.88112731  0.57501412    -0.79000
C1004       C  0.04852285  0.85299607  0.59295019     0.81800
N1005       N  0.05305079  0.84917094  0.62761744    -0.80700
C1006       C  0.09025483  0.73054175  0.66081055     0.79300
N1007       N  0.06348794  0.73129525  0.64252746    -0.79000
C1008       C  0.06486034  0.73284817  0.60677546     0.81700
N1009       N  0.09287881  0.73443860  0.58981778    -0.79000
C1010       C  0.11919807  0.73322180  0.60716997     0.81800
N1011       N  0.11824189  0.73144454  0.64292984    -0.80700
C1012       C  0.07890356  0.71051359  0.92702428     0.79300
N1013       N  0.05026279  0.70576083  0.94649186    -0.79000
C1014       C  0.04849327  0.69926268  0.98166584     0.81700
N1015       N  0.07604840  0.69861174  0.99761320    -0.79000
C1016       C  0.10517564  0.70422704  0.97876929     0.81800
N1017       N  0.10673546  0.71060975  0.94367475    -0.80700
C1018       C  0.36344559  0.60262530  0.92022800     0.79300
N1019       N  0.38870559  0.63215417  0.93959571    -0.79000
C1020       C  0.38505051  0.63252998  0.97516315     0.81700
N1021       N  0.35672258  0.60356464  0.99108843    -0.79000
C1022       C  0.33187790  0.57417730  0.97220858     0.81800
N1023       N  0.33463499  0.57402688  0.93669994    -0.80700
C1024       C  0.35895885  0.60256677  0.65592679     0.79300
N1025       N  0.39032428  0.62833593  0.64035475    -0.79000
C1026       C  0.39180431  0.63274294  0.60499585     0.81700
N1027       N  0.36123464  0.61228385  0.58529031    -0.79000
C1028       C  0.32966416  0.58656768  0.60062400     0.81800
N1029       N  0.32871463  0.58144877  0.63594407    -0.80700
C1030       C  0.36124474  0.77511903  0.64706416     0.79300
N1031       N  0.33225670  0.77189597  0.62960636    -0.79000
C1032       C  0.33289004  0.77442537  0.59385836     0.81700
N1033       N  0.36259114  0.77960562  0.57563235    -0.79000
C1034       C  0.39139865  0.78217127  0.59290348     0.81800
N1035       N  0.39003096  0.77931249  0.62851930    -0.80700
C1036       C  0.35148348  0.74370510  0.90974711     0.79300
N1037       N  0.37565275  0.73942033  0.92878750    -0.79000
C1038       C  0.37030643  0.73307308  0.96401429     0.81700
N1039       N  0.34231571  0.73236038  0.97966160    -0.79000
C1040       C  0.31979890  0.73883235  0.96169757     0.81800
N1041       N  0.32395540  0.74443781  0.92647023    -0.80700
C1042       C  0.18622593  0.59870597  0.91488098     0.79300
N1043       N  0.19426901  0.57589538  0.93137654    -0.79000
C1044       C  0.20062192  0.57903383  0.96656819     0.81700
N1045       N  0.19757210  0.60397400  0.98562490    -0.79000
C1046       C  0.18872349  0.62632090  0.97005123     0.81800
N1047       N  0.18443649  0.62483842  0.93428226    -0.80700
C1048       C  0.18818083  0.58971226  0.64864868     0.79300
N1049       N  0.18635315  0.56115677  0.63038550    -0.79000
C1050       C  0.19251904  0.56367223  0.59508396     0.81700
N1051       N  0.20263648  0.59560931  0.57862980    -0.79000
C1052       C  0.20533612  0.62448396  0.59674905     0.81800
N1053       N  0.19754947  0.62122949  0.63163541    -0.80700
O1054       O  0.21369961  0.80643422  0.01510843    -0.81100
O1055       O  0.22396308  0.68449902  0.99344067    -0.81100
O1056       O  0.28177848  0.76196249  0.97398716    -0.81100
O1057       O  0.13487517  0.68874908  0.02074339    -0.81100
O1058       O  0.28737487  0.72798387  0.01292096    -0.81200
O1059       O  0.16632235  0.74070562  0.99585677    -0.81100
O1060       O  0.17051731  0.65287032  0.01475665    -0.81100
O1061       O  0.24558759  0.79814461  0.97557827    -0.81100
C1062       C  0.23022798  0.81456384  0.98588220     1.08600
C1063       C  0.19326828  0.65670987  0.99185230     1.08500
C1064       C  0.29418578  0.74245465  0.98290902     1.08600
C1065       C  0.13725890  0.71069774  0.99796296     1.08500
O1066       O  0.15944138  0.76272742  0.56154467    -0.81100
O1067       O  0.26886783  0.74133402  0.58059734    -0.81200
O1068       O  0.26952281  0.82285513  0.54794090    -0.81100
O1069       O  0.20261856  0.67807178  0.58407452    -0.81100
O1070       O  0.24330701  0.67051292  0.55639634    -0.81100
O1071       O  0.22685378  0.78194883  0.58135207    -0.81100
O1072       O  0.16468674  0.71975521  0.58836971    -0.81100
O1073       O  0.30630536  0.78605182  0.54583924    -0.81100
Co1074     Co  0.19556880  0.75875024  0.53933472     1.51500
Co1075     Co  0.24178092  0.71064289  0.53822805     1.51700
Co1076     Co  0.27250457  0.78887297  0.51166710     1.51600
Co1077     Co  0.17502256  0.69167725  0.54894362     1.51500
O1078       O  0.22417388  0.74047526  0.52353054    -1.43000
C1079       C  0.14972091  0.73913239  0.58558997     1.08500
C1080       C  0.30066467  0.76805165  0.57385934     1.08600
C1081       C  0.25060424  0.81492983  0.57588950     1.08500
C1082       C  0.21753132  0.65905024  0.57831957     1.08500
O1083       O  0.00849808  0.78964530  0.58448017    -0.81100
O1084       O  0.43116671  0.69541073  0.59506048    -0.81100
O1085       O  0.42967724  0.78914438  0.54274017    -0.81100
O1086       O  0.50769831  0.71547132  0.58009258    -0.81100
O1087       O  0.42580745  0.75506836  0.58694256    -0.81200
O1088       O  0.05680395  0.76953884  0.56833520    -0.81100
O1089       O  0.43809742  0.65867861  0.56165124    -0.81100
O1090       O  0.50649147  0.82453614  0.54443501    -0.81100
C1091       C  0.01801803  0.82130552  0.57389811     1.08600
C1092       C  0.42399633  0.66354596  0.58872655     1.08500
C1093       C  0.41851501  0.77716680  0.57381751     1.08600
C1094       C  0.04163176  0.74010640  0.58532472     1.08500
O1095       O  0.02486431  0.73308266  0.00717054    -0.81100
O1096       O  0.38872832  0.72584833  0.01975022    -0.81200
O1097       O  0.50131002  0.78614411  0.97694578    -0.81100
O1098       O  0.44335712  0.68292270  0.99125273    -0.81100
O1099       O  0.39604451  0.66890207  0.02539057    -0.81100
O1100       O  0.04244990  0.80094492  0.01715268    -0.81100
O1101       O  0.49714756  0.67461679  0.02047126    -0.81100
O1102       O  0.42980694  0.75157191  0.97807506    -0.81100
Co1103     Co  0.01300863  0.75909214  0.54832083     1.51500
Co1104     Co  0.41320694  0.71247622  0.55703918     1.51700
Co1105     Co  0.46678737  0.78498834  0.51171898     1.51600
Co1106     Co  0.47586231  0.70167079  0.53358581     1.51500
O1107       O  0.46255510  0.74043749  0.53581032    -1.43000
C1108       C  0.02206558  0.70174071  0.00382815     1.08500
C1109       C  0.39738254  0.73496162  0.98769390     1.08600
C1110       C  0.03419882  0.80225388  0.98562875     1.08500
C1111       C  0.40951409  0.66400825  0.99737449     1.08500
O1112       O  0.19693764  0.89560521  0.55152338    -0.81100
O1113       O  0.21864354  0.52938393  0.57902829    -0.81100
O1114       O  0.27815063  0.52871680  0.58209052    -0.81100
O1115       O  0.13439522  0.94520004  0.54359706    -0.81100
O1116       O  0.28776757  0.57920294  0.55612091    -0.81200
O1117       O  0.17217114  0.93935795  0.57710914    -0.81100
O1118       O  0.17261434  0.52096438  0.54736387    -0.81100
O1119       O  0.23788542  0.94629316  0.57967676    -0.81100
C1120       C  0.22251857  0.91133139  0.57387612     1.08600
C1121       C  0.19272215  0.53431074  0.57467237     1.08500
C1122       C  0.29723599  0.56403414  0.57863619     1.08600
C1123       C  0.14036268  0.93261196  0.57104827     1.08500
O1124       O  0.15281006  0.90664746  0.00911148    -0.81100
O1125       O  0.27195607  0.54668326  0.99051623    -0.81200
O1126       O  0.26821809  0.95221650  0.01127523    -0.81100
O1127       O  0.19366703  0.52168648  0.97458064    -0.81100
O1128       O  0.22727814  0.56482208  0.01301047    -0.81100
O1129       O  0.21604380  0.93159756  0.98852488    -0.81100
O1130       O  0.15778897  0.94739940  0.97155501    -0.81100
O1131       O  0.30323998  0.52636513  0.01287870    -0.81100
Co1132     Co  0.19826651  0.93761972  0.53414002     1.51500
Co1133     Co  0.24698007  0.53665761  0.53550627     1.51700
Co1134     Co  0.26522572  0.98801840  0.54374141     1.51600
Co1135     Co  0.16825119  0.98429649  0.50974866     1.51500
O1136       O  0.21612218  0.98644518  0.52065735    -1.43000
C1137       C  0.14494520  0.91443876  0.97985700     1.08500
C1138       C  0.30022237  0.54604422  0.99076647     1.08600
C1139       C  0.24520007  0.93306619  0.98816272     1.08500
C1140       C  0.20866877  0.55450389  0.98478064     1.08500
C1141       C  0.18186109  0.59605494  0.87581324    -0.20800
C1142       C  0.16696882  0.56195020  0.85781593     0.35400
C1143       C  0.16678320  0.56082096  0.82075544    -0.26800
C1144       C  0.18139781  0.59292975  0.80107324     0.01800
C1145       C  0.19565890  0.62693665  0.81887985     0.26600
C1146       C  0.19525008  0.62807963  0.85604962    -0.25900
N1147       N  0.15199434  0.52849856  0.87720724    -0.83300
H1148       H  0.15524856  0.53468603  0.80705698     0.12400
C1149       C  0.18182543  0.59046448  0.76186061     0.01800
N1150       N  0.21142138  0.66024661  0.79915835    -0.81900
H1151       H  0.20693614  0.65427359  0.86964423     0.17300
C1152       C  0.16557638  0.60519538  0.74166868    -0.26700
C1153       C  0.16642781  0.60443117  0.70460794     0.35300
C1154       C  0.18338802  0.58801108  0.68736742    -0.20800
C1155       C  0.19842597  0.57205551  0.70750928    -0.26000
C1156       C  0.19840189  0.57366122  0.74455651     0.26700
H1157       H  0.15232290  0.61751141  0.75494434     0.12400
N1158       N  0.15012452  0.62021963  0.68444901    -0.83300
H1159       H  0.21177055  0.55979806  0.69429388     0.17300
N1160       N  0.21609229  0.55928370  0.76464862    -0.81900
H1161       H  0.13907795  0.63143064  0.70113204     0.32900
H1162       H  0.12849508  0.59900689  0.67017439     0.37400
H1163       H  0.22671348  0.54765848  0.74799988     0.32900
H1164       H  0.23818116  0.58135955  0.77771054     0.29600
H1165       H  0.22076780  0.68289413  0.81610207     0.32900
H1166       H  0.23415952  0.66344059  0.78603358     0.29600
H1167       H  0.12937744  0.52487843  0.89090229     0.37400
H1168       H  0.14259934  0.50597495  0.86007384     0.32900
C1169       C  0.36085516  0.77135940  0.68580766    -0.20800
C1170       C  0.34958045  0.78972461  0.70858260     0.35400
C1171       C  0.35054527  0.78583471  0.74527814    -0.26800
C1172       C  0.36240544  0.76390587  0.75941356     0.01800
C1173       C  0.37346273  0.74537573  0.73677311     0.26600
C1174       C  0.37297944  0.74962812  0.70015572    -0.25900
N1175       N  0.33768126  0.81255321  0.69442034    -0.83300
H1176       H  0.34177927  0.79969544  0.76297594     0.12400
C1177       C  0.36082760  0.75866215  0.79793226     0.01800
N1178       N  0.38416457  0.72160653  0.75107260    -0.81900
H1179       H  0.38148311  0.73538519  0.68266347     0.17300
C1180       C  0.32895459  0.72971399  0.81242773    -0.26700
C1181       C  0.32567864  0.72410019  0.84896275     0.35300
C1182       C  0.35499314  0.74783967  0.87122779    -0.20800
C1183       C  0.38723944  0.77635099  0.85668063    -0.26000
C1184       C  0.39032117  0.78227270  0.82008547     0.26700
H1185       H  0.30651286  0.71165077  0.79512914     0.12400
N1186       N  0.29280307  0.69432657  0.86359849    -0.83300
H1187       H  0.40959542  0.79455917  0.87399289     0.17300
N1188       N  0.42276794  0.81259200  0.80543280    -0.81900
H1189       H  0.27409706  0.67931845  0.84357210     0.32900
H1190       H  0.29914775  0.67648321  0.87531707     0.37400
H1191       H  0.44156612  0.82770691  0.82538286     0.32900
H1192       H  0.43468354  0.80191620  0.78924450     0.29600
H1193       H  0.39067684  0.70926219  0.73081061     0.32900
H1194       H  0.40785976  0.73774946  0.76575370     0.29600
H1195       H  0.35981715  0.83440258  0.68173423     0.37400
H1196       H  0.33023596  0.82399058  0.71473310     0.32900
C1197       C  0.36572024  0.60233135  0.88133085    -0.20800
C1198       C  0.35058744  0.56897582  0.86204431     0.35400
C1199       C  0.34996622  0.56948144  0.82512975    -0.26800
C1200       C  0.36459695  0.60251701  0.80722308     0.01800
C1201       C  0.38079217  0.63594713  0.82610984     0.26600
C1202       C  0.38128867  0.63556242  0.86313068    -0.25900
N1203       N  0.33610281  0.53475209  0.87996533    -0.83300
H1204       H  0.33800612  0.54401523  0.81015738     0.12400
C1205       C  0.36273173  0.60145431  0.76849366     0.01800
N1206       N  0.39574853  0.66991244  0.80761546    -0.81900
H1207       H  0.39287020  0.66117157  0.87777985     0.17300
C1208       C  0.33290317  0.59939207  0.75191324    -0.26700
C1209       C  0.33005426  0.59799117  0.71497309     0.35300
C1210       C  0.35797898  0.59915453  0.69456509    -0.20800
C1211       C  0.38752699  0.60068788  0.71141246    -0.26000
C1212       C  0.39005844  0.60160654  0.74828648     0.26700
H1213       H  0.31191734  0.59900162  0.76789291     0.12400
N1214       N  0.29998393  0.59728260  0.69826019    -0.83300
H1215       H  0.40886989  0.60151839  0.69568002     0.17300
N1216       N  0.42009577  0.60255578  0.76536454    -0.81900
H1217       H  0.28372570  0.59984301  0.71707443     0.32900
H1218       H  0.28375208  0.57141264  0.68655496     0.37400
H1219       H  0.43770234  0.60217582  0.74665016     0.32900
H1220       H  0.43486941  0.62748395  0.77903962     0.29600
H1221       H  0.40604321  0.69200166  0.82544032     0.32900
H1222       H  0.41776806  0.67353932  0.79283441     0.29600
H1223       H  0.35762481  0.53533904  0.89291136     0.37400
H1224       H  0.32565545  0.51287478  0.86190836     0.32900
C1225       C  0.08059156  0.71611183  0.88807310    -0.20800
C1226       C  0.06031461  0.72856198  0.87050260     0.35400
C1227       C  0.06359542  0.73331985  0.83369871    -0.26800
C1228       C  0.08560480  0.72481380  0.81373693     0.01800
C1229       C  0.10605885  0.71275646  0.83118097     0.26600
C1230       C  0.10364240  0.70897554  0.86799626    -0.25900
N1231       N  0.03689264  0.73691147  0.88981717    -0.83300
H1232       H  0.04845334  0.74327661  0.82036126     0.12400
C1233       C  0.08635296  0.72769171  0.77454696     0.01800
N1234       N  0.12878056  0.70377044  0.81138649    -0.81900
H1235       H  0.11932906  0.69944851  0.88094789     0.17300
C1236       C  0.11978837  0.74842859  0.75725369    -0.26700
C1237       C  0.12185682  0.75009699  0.72023646     0.35300
C1238       C  0.08966107  0.73060901  0.69995992    -0.20800
C1239       C  0.05612734  0.71118181  0.71729849    -0.26000
C1240       C  0.05410804  0.70921391  0.75429683     0.26700
H1241       H  0.14443338  0.76340701  0.77278777     0.12400
N1242       N  0.15644725  0.77196167  0.70329088    -0.83300
H1243       H  0.03137034  0.69662043  0.70185681     0.17300
N1244       N  0.01945851  0.68809505  0.77129969    -0.81900
H1245       H  0.17739191  0.78418392  0.72203905     0.31100
H1246       H  0.15637013  0.79329752  0.69055360     0.37400
H1247       H  0.99849381  0.67676369  0.75269644     0.32900
H1248       H  0.01874963  0.66615487  0.78379357     0.29600
H1249       H  0.14233902  0.69572348  0.82815985     0.32900
H1250       H  0.11191199  0.68113803  0.79523349     0.29600
H1251       H  0.01410539  0.71200003  0.89731479     0.37400
H1252       H  0.52484071  0.74709719  0.87321314     0.32900
C1253       C  0.08700380  0.84980665  0.86822583    -0.20800
C1254       C  0.05447351  0.83573392  0.84881058     0.35400
C1255       C  0.05587205  0.83660389  0.81180594    -0.26800
C1256       C  0.08897917  0.85094223  0.79399405     0.01800
C1257       C  0.12107690  0.86292151  0.81329397     0.26600
C1258       C  0.11986071  0.86262979  0.85026220    -0.25900
N1259       N  0.02042194  0.82193553  0.86662216    -0.83300
H1260       H  0.03124884  0.82737207  0.79678233     0.12400
C1261       C  0.08994571  0.85580152  0.75535653     0.01800
N1262       N  0.15473893  0.87555501  0.79518741    -0.81900
H1263       H  0.14468822  0.87250062  0.86515128     0.17300
C1264       C  0.11036059  0.89130183  0.74181316    -0.26700
C1265       C  0.10956083  0.89772479  0.70572142     0.35300
C1266       C  0.08806553  0.86782257  0.68267247    -0.20800
C1267       C  0.06842197  0.83214465  0.69625587    -0.26000
C1268       C  0.06924509  0.82585281  0.73236719     0.26700
H1269       H  0.12600258  0.91424605  0.75974580     0.12400
N1270       N  0.12944878  0.93455040  0.69274286    -0.83300
H1271       H  0.05228699  0.80904162  0.67864127     0.17300
N1272       N  0.04909816  0.78927492  0.74588486    -0.81900
H1273       H  0.14421691  0.95322319  0.71310230     0.32900
H1274       H  0.11057180  0.94085878  0.68401123     0.37400
H1275       H  0.03544837  0.77026476  0.72553759     0.32900
H1276       H  0.06787351  0.78355110  0.75630763     0.29600
H1277       H  0.17587009  0.88363941  0.81324758     0.32900
H1278       H  0.15219732  0.85330671  0.78089513     0.29600
H1279       H  0.02157089  0.84388002  0.88015539     0.37400
H1280       H  0.49909592  0.81404337  0.84822608     0.32900
C1281       C  0.24005886  0.87008857  0.68733540    -0.20800
C1282       C  0.22620344  0.88916831  0.70566324     0.35400
C1283       C  0.22723344  0.89081441  0.74247847    -0.26800
C1284       C  0.24068319  0.87293992  0.76162360     0.01800
C1285       C  0.25400299  0.85343839  0.74388281     0.26600
C1286       C  0.25362045  0.85222419  0.70687606    -0.25900
N1287       N  0.21035162  0.90637021  0.68733551    -0.83300
H1288       H  0.21697070  0.90577923  0.75622787     0.12400
C1289       C  0.23971763  0.87406628  0.80038148     0.01800
N1290       N  0.26806561  0.83520538  0.76358915    -0.81900
H1291       H  0.26427947  0.83751074  0.69335221     0.17300
C1292       C  0.21656734  0.84164801  0.81833286    -0.26700
C1293       C  0.21492707  0.84136105  0.85523979     0.35300
C1294       C  0.23746421  0.87424804  0.87439642    -0.20800
C1295       C  0.25974150  0.90692869  0.85620305    -0.26000
C1296       C  0.26122204  0.90711694  0.81926848     0.26700
H1297       H  0.19958006  0.81657711  0.80338527     0.12400
N1298       N  0.19019865  0.80798132  0.87319171    -0.83300
H1299       H  0.27689193  0.93217577  0.87084842     0.17300
N1300       N  0.28484747  0.94048183  0.80081596    -0.81900
H1301       H  0.17594115  0.78639491  0.85514519     0.32900
H1302       H  0.17092768  0.81178796  0.88588091     0.37400
H1303       H  0.29872926  0.96243052  0.81862118     0.32900
H1304       H  0.30447550  0.93741265  0.78800370     0.29600
H1305       H  0.27647244  0.82176336  0.74664022     0.32900
H1306       H  0.29123037  0.85536343  0.77710681     0.29600
H1307       H  0.22467835  0.93420280  0.69427872     0.37400
H1308       H  0.18359321  0.89481506  0.69593770     0.32900
C1309       C  0.74175085  0.36938032  0.14916953     0.79300
N1310       N  0.73501512  0.39192814  0.13042524    -0.79000
C1311       C  0.73353994  0.39004430  0.09483742     0.81700
N1312       N  0.74002347  0.36604664  0.07762031    -0.79000
C1313       C  0.74793394  0.34400283  0.09591684     0.81800
N1314       N  0.74776221  0.34507770  0.13170823    -0.80700
C1315       C  0.73860378  0.37367757  0.41419598     0.79300
N1316       N  0.74430487  0.40378623  0.43251163    -0.79000
C1317       C  0.74577947  0.40439949  0.46827644     0.81700
N1318       N  0.73932663  0.37425461  0.48560751    -0.79000
C1319       C  0.73318029  0.34417143  0.46757371     0.81800
N1320       N  0.73353197  0.34410158  0.43192880    -0.80700
C1321       C  0.58844978  0.35179902  0.40737914     0.79300
N1322       N  0.61632429  0.38186563  0.42406636    -0.79000
C1323       C  0.61679732  0.38392732  0.45978543     0.81700
N1324       N  0.59042795  0.35652960  0.47837593    -0.79000
C1325       C  0.56244993  0.32739117  0.46252507     0.81800
N1326       N  0.56088142  0.32474994  0.42675067    -0.80700
C1327       C  0.58563914  0.37338575  0.14546452     0.79300
N1328       N  0.61331487  0.40113291  0.12714377    -0.79000
C1329       C  0.60911502  0.40571823  0.09252443     0.81700
N1330       N  0.57693721  0.38151729  0.07594295    -0.79000
C1331       C  0.54921144  0.35309595  0.09394479     0.81800
N1332       N  0.55419489  0.34919584  0.12851395    -0.80700
C1333       C  0.58940909  0.22928779  0.16191294     0.79300
N1334       N  0.56289637  0.23045465  0.14354199    -0.79000
C1335       C  0.56460416  0.23242902  0.10779748     0.81700
N1336       N  0.59265663  0.23394656  0.09098343    -0.79000
C1337       C  0.61871158  0.23231041  0.10840954     0.81800
N1338       N  0.61743788  0.23015893  0.14413850    -0.80700
C1339       C  0.57802657  0.20846157  0.42799425     0.79300
N1340       N  0.54962926  0.20428400  0.44744786    -0.79000
C1341       C  0.54787743  0.19806833  0.48265251     0.81700
N1342       N  0.57522280  0.19709279  0.49867875    -0.79000
C1343       C  0.60413391  0.20210153  0.47984021     0.81800
N1344       N  0.60567891  0.20822648  0.44466913    -0.80700
C1345       C  0.86471359  0.10239753  0.42007325     0.79300
N1346       N  0.88982285  0.13198551  0.43952348    -0.79000
C1347       C  0.88609455  0.13220407  0.47512352     0.81700
N1348       N  0.85781022  0.10306168  0.49091829    -0.79000
C1349       C  0.83310956  0.07368502  0.47190477     0.81800
N1350       N  0.83597288  0.07367550  0.43642860    -0.80700
C1351       C  0.85877113  0.10210995  0.15583621     0.79300
N1352       N  0.89009680  0.12796950  0.14026110    -0.79000
C1353       C  0.89152914  0.13231791  0.10489125     0.81700
N1354       N  0.86101679  0.11176000  0.08520690    -0.79000
C1355       C  0.82951868  0.08599272  0.10053128     0.81800
N1356       N  0.82855619  0.08088043  0.13584972    -0.80700
C1357       C  0.86166856  0.27591488  0.14745217     0.79300
N1358       N  0.83305362  0.27348362  0.13005157    -0.79000
C1359       C  0.83374633  0.27621303  0.09435745     0.81700
N1360       N  0.86318816  0.28081950  0.07604689    -0.79000
C1361       C  0.89167324  0.28258995  0.09324658     0.81800
N1362       N  0.89019771  0.27948078  0.12887594    -0.80700
C1363       C  0.85138898  0.24446028  0.41039897     0.79300
N1364       N  0.87568609  0.24020131  0.42928331    -0.79000
C1365       C  0.87058456  0.23395978  0.46456014     0.81700
N1366       N  0.84267679  0.23330163  0.48040343    -0.79000
C1367       C  0.81998267  0.23965097  0.46256542     0.81800
N1368       N  0.82395117  0.24517901  0.42733943    -0.80700
C1369       C  0.68430378  0.09778156  0.41574081     0.79300
N1370       N  0.69329955  0.07533697  0.43149725    -0.79000
C1371       C  0.70117713  0.07895099  0.46640236     0.81700
N1372       N  0.69864611  0.10391394  0.48594370    -0.79000
C1373       C  0.68880266  0.12581440  0.47116181     0.81800
N1374       N  0.68297435  0.12391672  0.43561564    -0.80700
C1375       C  0.68998863  0.09006653  0.14967567     0.79300
N1376       N  0.68783077  0.06150220  0.13105493    -0.79000
C1377       C  0.69384339  0.06425582  0.09566357     0.81700
N1378       N  0.70416338  0.09642759  0.07954432    -0.79000
C1379       C  0.70719594  0.12528241  0.09802413     0.81800
N1380       N  0.69953647  0.12177189  0.13293484    -0.80700
O1381       O  0.71161191  0.30477228  0.51616805    -0.81100
O1382       O  0.72435726  0.18356750  0.49537312    -0.81100
O1383       O  0.78078368  0.26148390  0.47463670    -0.81100
O1384       O  0.63404130  0.18703685  0.52209224    -0.81100
O1385       O  0.78758232  0.22851678  0.51387349    -0.81200
O1386       O  0.66521652  0.23879294  0.49688368    -0.81100
O1387       O  0.67044542  0.15213548  0.51587532    -0.81100
O1388       O  0.74325812  0.29645167  0.47642409    -0.81100
C1389       C  0.72797094  0.31289709  0.48688742     1.08600
C1390       C  0.69350206  0.15600260  0.49335104     1.08500
C1391       C  0.79400557  0.24274143  0.48375476     1.08600
C1392       C  0.63625680  0.20873223  0.49909951     1.08500
O1393       O  0.65889959  0.26180041  0.06282501    -0.81100
O1394       O  0.76972643  0.24303911  0.08174991    -0.81200
O1395       O  0.76888228  0.32304691  0.04858325    -0.81100
O1396       O  0.70352004  0.17835658  0.08537752    -0.81100
O1397       O  0.74548041  0.17219204  0.05849024    -0.81100
O1398       O  0.72666076  0.28215896  0.08246005    -0.81100
O1399       O  0.66467062  0.21926763  0.08984787    -0.81100
O1400       O  0.80663973  0.28737622  0.04639347    -0.81100
Co1401     Co  0.69528140  0.25830539  0.04064382     1.51500
Co1402     Co  0.74277855  0.21147171  0.03987192     1.51700
Co1403     Co  0.77201702  0.28917483  0.01246845     1.51600
Co1404     Co  0.67535619  0.19149247  0.05032775     1.51500
O1405       O  0.72423035  0.24044976  0.02482143    -1.43000
C1406       C  0.64937646  0.23833801  0.08695028     1.08500
C1407       C  0.80139050  0.26975190  0.07460505     1.08600
C1408       C  0.75021205  0.31516401  0.07666595     1.08500
C1409       C  0.71917571  0.15998135  0.07987010     1.08500
O1410       O  0.50893138  0.28966780  0.08534960    -0.81100
O1411       O  0.93057483  0.19493337  0.09479767    -0.81100
O1412       O  0.92979078  0.28921091  0.04298287    -0.81100
O1413       O  0.00691645  0.21473817  0.08033473    -0.81100
O1414       O  0.92524169  0.25454741  0.08691759    -0.81200
O1415       O  0.55692676  0.26920955  0.06899313    -0.81100
O1416       O  0.93749645  0.15822318  0.06137309    -0.81100
O1417       O  0.00656677  0.32413335  0.04497455    -0.81100
C1418       C  0.51852057  0.32139108  0.07490120     1.08600
C1419       C  0.92351538  0.16311278  0.08850360     1.08500
C1420       C  0.91839615  0.27704702  0.07397086     1.08600
C1421       C  0.54155673  0.23989050  0.08618746     1.08500
O1422       O  0.52430664  0.23229053  0.50739700    -0.81100
O1423       O  0.88876985  0.22549803  0.51993975    -0.81200
O1424       O  0.00160068  0.28619831  0.47762957    -0.81100
O1425       O  0.94419644  0.18277513  0.49171561    -0.81100
O1426       O  0.89652655  0.16857118  0.52535975    -0.81100
O1427       O  0.54226025  0.30039560  0.51727744    -0.81100
O1428       O  0.99782052  0.17464629  0.52159859    -0.81100
O1429       O  0.93007164  0.25196438  0.47854683    -0.81100
Co1430     Co  0.51317695  0.25908095  0.04896711     1.51500
Co1431     Co  0.91283064  0.21217140  0.05670613     1.51700
Co1432     Co  0.96687535  0.28497102  0.01195091     1.51600
Co1433     Co  0.97543113  0.20120109  0.03356891     1.51500
O1434       O  0.96228914  0.24010629  0.03573885    -1.43000
C1435       C  0.52160259  0.20095322  0.50463172     1.08500
C1436       C  0.89759052  0.23528914  0.48804956     1.08600
C1437       C  0.53404355  0.30184466  0.48575746     1.08500
C1438       C  0.91029527  0.16375113  0.49750927     1.08500
O1439       O  0.69712149  0.39633294  0.05275451    -0.81100
O1440       O  0.71922255  0.02945436  0.07880023    -0.81100
O1441       O  0.77794890  0.02823261  0.08202081    -0.81100
O1442       O  0.63446673  0.44543312  0.04392540    -0.81100
O1443       O  0.78820124  0.07874439  0.05557927    -0.81200
O1444       O  0.67252493  0.44040296  0.07776852    -0.81100
O1445       O  0.67333126  0.02172165  0.04743860    -0.81100
O1446       O  0.73850239  0.44715071  0.08039522    -0.81100
C1447       C  0.72280007  0.41208181  0.07501053     1.08600
C1448       C  0.69357286  0.03481771  0.07473558     1.08500
C1449       C  0.79721963  0.06352596  0.07847359     1.08600
C1450       C  0.64060508  0.43328947  0.07161688     1.08500
O1451       O  0.65211284  0.40655010  0.50986179    -0.81100
O1452       O  0.77291941  0.04594107  0.48939429    -0.81200
O1453       O  0.76753642  0.45188489  0.51133682    -0.81100
O1454       O  0.69488080  0.02187935  0.47375204    -0.81100
O1455       O  0.72872038  0.06490361  0.51209256    -0.81100
O1456       O  0.71493846  0.43071057  0.48940308    -0.81100
O1457       O  0.65745265  0.44711983  0.47186873    -0.81100
O1458       O  0.80417710  0.02608395  0.51267247    -0.81100
Co1459     Co  0.69841045  0.43819842  0.03489340     1.51500
Co1460     Co  0.74721662  0.03637484  0.03507375     1.51700
Co1461     Co  0.76545083  0.48849791  0.04387240     1.51600
Co1462     Co  0.66825520  0.48440240  0.00984141     1.51500
O1463       O  0.71627911  0.48688622  0.02091476    -1.43000
C1464       C  0.64450175  0.41420932  0.48038528     1.08500
C1465       C  0.80129743  0.04552405  0.49018902     1.08600
C1466       C  0.74406909  0.43215467  0.48875986     1.08500
C1467       C  0.70990052  0.05464431  0.48400317     1.08500
C1468       C  0.67901777  0.09509396  0.37678948    -0.20800
C1469       C  0.66361495  0.06094537  0.35881537     0.35400
C1470       C  0.66397713  0.05983340  0.32173959    -0.26800
C1471       C  0.67932102  0.09201162  0.30205421     0.01800
C1472       C  0.69332289  0.12600026  0.31985558     0.26600
C1473       C  0.69265315  0.12713929  0.35702465    -0.25900
N1474       N  0.64769459  0.02746537  0.37828612    -0.83300
H1475       H  0.65239744  0.03369318  0.30804386     0.12400
C1476       C  0.68069961  0.08967931  0.26285388     0.01800
N1477       N  0.70912040  0.15930224  0.30012635    -0.81900
H1478       H  0.70446804  0.15334162  0.37062493     0.17300
C1479       C  0.66488467  0.10441997  0.24206155    -0.26700
C1480       C  0.66675531  0.10399625  0.20504645     0.35300
C1481       C  0.68433202  0.08791159  0.18835900    -0.20800
C1482       C  0.69896894  0.07192382  0.20906796    -0.26000
C1483       C  0.69792102  0.07320793  0.24615058     0.26700
H1484       H  0.65117560  0.11651383  0.25484318     0.12400
N1485       N  0.65082469  0.11980333  0.18434381    -0.83300
H1486       H  0.71274242  0.05988654  0.19630670     0.17300
N1487       N  0.71522384  0.05886070  0.26690091    -0.81900
H1488       H  0.63924968  0.13076829  0.20063314     0.32900
H1489       H  0.62962967  0.09864727  0.16961264     0.37400
H1490       H  0.72652620  0.04762217  0.25066118     0.32900
H1491       H  0.73681956  0.08090255  0.28051578     0.29600
H1492       H  0.71783474  0.18191104  0.31699639     0.32900
H1493       H  0.73220163  0.16279794  0.28749333     0.29600
H1494       H  0.62525591  0.02455901  0.39177879     0.37400
H1495       H  0.63783998  0.00486025  0.36119343     0.32900
C1496       C  0.86081542  0.27172292  0.18613646    -0.20800
C1497       C  0.85079817  0.29113928  0.20894528     0.35400
C1498       C  0.85094818  0.28659886  0.24560847    -0.26800
C1499       C  0.86079724  0.26301406  0.25967774     0.01800
C1500       C  0.87031108  0.24321448  0.23695835     0.26600
C1501       C  0.87068244  0.24813389  0.20037022    -0.25900
N1502       N  0.84107391  0.31573430  0.19484550    -0.83300
H1503       H  0.84331293  0.30141243  0.26333540     0.12400
C1504       C  0.85941658  0.25805328  0.29825415     0.01800
N1505       N  0.87852818  0.21749655  0.25111484    -0.81900
H1506       H  0.87805049  0.23298214  0.18280376     0.17300
C1507       C  0.82661899  0.23148340  0.31347734    -0.26700
C1508       C  0.82375414  0.22625188  0.35008414     0.35300
C1509       C  0.85433569  0.24812165  0.37174572    -0.20800
C1510       C  0.88740791  0.27423811  0.35643553    -0.26000
C1511       C  0.89016664  0.27969372  0.31975881     0.26700
H1512       H  0.80320087  0.21489320  0.29668478     0.12400
N1513       N  0.79003345  0.19860088  0.36539010    -0.83300
H1514       H  0.91077625  0.29102828  0.37321615     0.17300
N1515       N  0.92363478  0.30774255  0.30438499    -0.81900
H1516       H  0.77046649  0.18470382  0.34575313     0.32900
H1517       H  0.79433200  0.17920676  0.37687387     0.37400
H1518       H  0.94333962  0.32175020  0.32391799     0.32900
H1519       H  0.93324503  0.29493557  0.28799003     0.29600
H1520       H  0.88398763  0.20435903  0.23079047     0.32900
H1521       H  0.90230151  0.23219802  0.26600234     0.29600
H1522       H  0.86405767  0.33699839  0.18251462     0.37400
H1523       H  0.83436451  0.32779647  0.21514653     0.32900
C1524       C  0.86680524  0.10212142  0.38119106    -0.20800
C1525       C  0.85263602  0.06880328  0.36200825     0.35400
C1526       C  0.85136545  0.06906163  0.32511027    -0.26800
C1527       C  0.86440571  0.10184467  0.30713012     0.01800
C1528       C  0.87967956  0.13527142  0.32591735     0.26600
C1529       C  0.88079330  0.13512385  0.36292285    -0.25900
N1530       N  0.83978406  0.03488305  0.38002846    -0.83300
H1531       H  0.84018539  0.04361896  0.31021501     0.12400
C1532       C  0.86237940  0.10064486  0.26840099     0.01800
N1533       N  0.89324327  0.16898463  0.30732380    -0.81900
H1534       H  0.89159505  0.16067407  0.37752685     0.17300
C1535       C  0.83261163  0.09872171  0.25183067    -0.26700
C1536       C  0.82985579  0.09751632  0.21488100     0.35300
C1537       C  0.85778077  0.09867706  0.19446902    -0.20800
C1538       C  0.88729098  0.10013408  0.21130688    -0.26000
C1539       C  0.88976924  0.10094355  0.24817832     0.26700
H1540       H  0.81163657  0.09834347  0.26781780     0.12400
N1541       N  0.79990703  0.09705123  0.19817211    -0.83300
H1542       H  0.90866964  0.10104136  0.19557187     0.17300
N1543       N  0.91992326  0.10212510  0.26525543    -0.81900
H1544       H  0.78360439  0.09950113  0.21701378     0.32900
H1545       H  0.78366230  0.07128936  0.18626370     0.37400
H1546       H  0.93763550  0.10195547  0.24654852     0.32900
H1547       H  0.93452102  0.12706238  0.27897194     0.29600
H1548       H  0.90307096  0.19109708  0.32506934     0.32900
H1549       H  0.91538275  0.17337912  0.29224359     0.29600
H1550       H  0.86202407  0.03666670  0.39270188     0.37400
H1551       H  0.82996022  0.01298251  0.36204900     0.32900
C1552       C  0.57959378  0.21387152  0.38904500    -0.20800
C1553       C  0.56021443  0.22747189  0.37167158     0.35400
C1554       C  0.56323598  0.23196758  0.33483991    -0.26800
C1555       C  0.58419905  0.22223283  0.31472165     0.01800
C1556       C  0.60371856  0.20897606  0.33193881     0.26600
C1557       C  0.60152470  0.20535466  0.36877600    -0.25900
N1558       N  0.53805902  0.23733889  0.39123131    -0.83300
H1559       H  0.54878831  0.24277147  0.32161601     0.12400
C1560       C  0.58504397  0.22534973  0.27559655     0.01800
N1561       N  0.62526654  0.19865931  0.31187228    -0.81900
H1562       H  0.61646784  0.19490528  0.38160756     0.17300
C1563       C  0.61856409  0.24601183  0.25846438    -0.26700
C1564       C  0.62074272  0.24815938  0.22147861     0.35300
C1565       C  0.58859639  0.22899077  0.20106803    -0.20800
C1566       C  0.55498140  0.20953256  0.21828480    -0.26000
C1567       C  0.55283732  0.20734319  0.25528210     0.26700
H1568       H  0.64317201  0.26064600  0.27411665     0.12400
N1569       N  0.65539728  0.27023086  0.20470001    -0.83300
H1570       H  0.53026555  0.19527172  0.20275779     0.17300
N1571       N  0.51811491  0.18659626  0.27223505    -0.81900
H1572       H  0.67629075  0.28224721  0.22352641     0.31100
H1573       H  0.65536246  0.29171827  0.19225164     0.37400
H1574       H  0.49716983  0.17555653  0.25359949     0.32900
H1575       H  0.51701522  0.16445300  0.28469380     0.29600
H1576       H  0.63819119  0.18974901  0.32847754     0.32900
H1577       H  0.60763332  0.17628159  0.29578965     0.29600
H1578       H  0.51468720  0.21299285  0.39889171     0.37400
H1579       H  0.03098136  0.25335551  0.37556572     0.32900
C1580       C  0.58844597  0.34897825  0.36848344    -0.20800
C1581       C  0.55626130  0.33490135  0.34850235     0.35400
C1582       C  0.55828378  0.33581272  0.31151935    -0.26800
C1583       C  0.59169005  0.35037404  0.29424110     0.01800
C1584       C  0.62347743  0.36236258  0.31407109     0.26600
C1585       C  0.62162435  0.36189386  0.35104938    -0.25900
N1586       N  0.52192436  0.32116731  0.36571243    -0.83300
H1587       H  0.53390425  0.32655136  0.29607068     0.12400
C1588       C  0.59313802  0.35560898  0.25562172     0.01800
N1589       N  0.65745471  0.37522526  0.29651037    -0.81900
H1590       H  0.64621194  0.37180736  0.36635822     0.17300
C1591       C  0.61219684  0.39133321  0.24247458    -0.26700
C1592       C  0.61064498  0.39794955  0.20653024     0.35300
C1593       C  0.58998025  0.36802352  0.18321835    -0.20800
C1594       C  0.57195375  0.33217910  0.19635955    -0.26000
C1595       C  0.57337979  0.32571315  0.23233420     0.26700
H1596       H  0.62708904  0.41422949  0.26064386     0.12400
N1597       N  0.62874940  0.43492565  0.19400281    -0.83300
H1598       H  0.55651594  0.30909707  0.17852137     0.17300
N1599       N  0.55460968  0.28899358  0.24547830    -0.81900
H1600       H  0.64297449  0.45363680  0.21451138     0.32900
H1601       H  0.60880254  0.43991290  0.18574263     0.37400
H1602       H  0.54138683  0.27005207  0.22498588     0.32900
H1603       H  0.57424093  0.28429082  0.25548520     0.29600
H1604       H  0.67828304  0.38322954  0.31491777     0.32900
H1605       H  0.65522486  0.35309870  0.28224366     0.29600
H1606       H  0.52288711  0.34315666  0.37896824     0.37400
H1607       H  0.00095253  0.31816515  0.34888825     0.32900
C1608       C  0.74164132  0.37064233  0.18831217    -0.20800
C1609       C  0.72864674  0.39008862  0.20730957     0.35400
C1610       C  0.73013474  0.39134505  0.24410924    -0.26800
C1611       C  0.74325335  0.37276698  0.26260576     0.01800
C1612       C  0.75577075  0.35290793  0.24418332     0.26600
C1613       C  0.75489392  0.35205963  0.20718541    -0.25900
N1614       N  0.71315730  0.40801654  0.18968459    -0.83300
H1615       H  0.72039893  0.40651018  0.25837841     0.12400
C1616       C  0.74238434  0.37334968  0.30138665     0.01800
N1617       N  0.76950170  0.33393538  0.26315916    -0.81900
H1618       H  0.76490078  0.33702035  0.19314853     0.17300
C1619       C  0.71942330  0.34064302  0.31899822    -0.26700
C1620       C  0.71683256  0.34010817  0.35584299     0.35300
C1621       C  0.73819998  0.37309270  0.37531971    -0.20800
C1622       C  0.76059444  0.40594125  0.35744747    -0.26000
C1623       C  0.76304758  0.40635131  0.32058335     0.26700
H1624       H  0.70306304  0.31558512  0.30381093     0.12400
N1625       N  0.69219469  0.30638725  0.37336129    -0.83300
H1626       H  0.77698620  0.43121077  0.37230903     0.17300
N1627       N  0.78669237  0.43995518  0.30249350    -0.81900
H1628       H  0.67891347  0.28479922  0.35513901     0.32900
H1629       H  0.67211816  0.30944015  0.38530547     0.37400
H1630       H  0.79992761  0.46181921  0.32048931     0.32900
H1631       H  0.80683294  0.43736163  0.29018655     0.29600
H1632       H  0.77728259  0.32030397  0.24574308     0.32900
H1633       H  0.79301608  0.35367398  0.27654731     0.29600
H1634       H  0.72802644  0.43579945  0.19687014     0.37400
H1635       H  0.68658710  0.39686117  0.19865387     0.32900
C1636       C  0.73992795  0.36770943  0.64912105     0.79300
N1637       N  0.73380373  0.39064598  0.63032787    -0.79000
C1638       C  0.73325214  0.38941326  0.59473756     0.81700
N1639       N  0.73993365  0.36556967  0.57752065    -0.79000
C1640       C  0.74719919  0.34306660  0.59583073     0.81800
N1641       N  0.74614043  0.34352851  0.63164371    -0.80700
C1642       C  0.73672997  0.37323913  0.91433646     0.79300
N1643       N  0.74291069  0.40362410  0.93245767    -0.79000
C1644       C  0.74587499  0.40500233  0.96814685     0.81700
N1645       N  0.74042313  0.37532629  0.98564924    -0.79000
C1646       C  0.73379005  0.34498104  0.96779941     0.81800
N1647       N  0.73261873  0.34413051  0.93218273    -0.80700
C1648       C  0.58771419  0.35250785  0.90772540     0.79300
N1649       N  0.61589950  0.38245240  0.92420340    -0.79000
C1650       C  0.61685105  0.38439176  0.95992248     0.81700
N1651       N  0.59067722  0.35699404  0.97867579    -0.79000
C1652       C  0.56241111  0.32799106  0.96299865     0.81800
N1653       N  0.56031418  0.32549862  0.92724168    -0.80700
C1654       C  0.58497356  0.37237381  0.64529417     0.79300
N1655       N  0.61281759  0.40007863  0.62706024    -0.79000
C1656       C  0.60885128  0.40480141  0.59241429     0.81700
N1657       N  0.57677434  0.38067708  0.57564895    -0.79000
C1658       C  0.54891557  0.35224795  0.59350607     0.81800
N1659       N  0.55361813  0.34831531  0.62813099    -0.80700
C1660       C  0.58911379  0.22955307  0.66186412     0.79300
N1661       N  0.56249941  0.23041557  0.64336833    -0.79000
C1662       C  0.56379191  0.23142043  0.60757462     0.81700
N1663       N  0.59158781  0.23236626  0.59080335    -0.79000
C1664       C  0.61780703  0.23112551  0.60834172     0.81800
N1665       N  0.61692163  0.22991516  0.64413110    -0.80700
C1666       C  0.57925408  0.21075583  0.92816341     0.79300
N1667       N  0.55073083  0.20630327  0.94761762    -0.79000
C1668       C  0.54878748  0.19961783  0.98275408     0.81700
N1669       N  0.57606805  0.19844487  0.99869468    -0.79000
C1670       C  0.60509010  0.20371432  0.97986633     0.81800
N1671       N  0.60681307  0.21029268  0.94477610    -0.80700
C1672       C  0.86244692  0.10290100  0.91966159     0.79300
N1673       N  0.88821006  0.13218929  0.93898150    -0.79000
C1674       C  0.88542313  0.13197838  0.97471242     0.81700
N1675       N  0.85748887  0.10275693  0.99072978    -0.79000
C1676       C  0.83216872  0.07372892  0.97183611     0.81800
N1677       N  0.83400468  0.07417047  0.93629091    -0.80700
C1678       C  0.85814973  0.10305685  0.65559604     0.79300
N1679       N  0.88966942  0.12882676  0.64028109    -0.79000
C1680       C  0.89164493  0.13278198  0.60485805     0.81700
N1681       N  0.86143581  0.11188508  0.58483637    -0.79000
C1682       C  0.82974957  0.08618263  0.59997204     0.81800
N1683       N  0.82827317  0.08151838  0.63535905    -0.80700
C1684       C  0.86177176  0.27754915  0.64735245     0.79300
N1685       N  0.83297491  0.27453520  0.62978351    -0.79000
C1686       C  0.83346275  0.27647918  0.59402982     0.81700
N1687       N  0.86289743  0.28089823  0.57583944    -0.79000
C1688       C  0.89156855  0.28322523  0.59322178     0.81800
N1689       N  0.89028251  0.28087944  0.62890749    -0.80700
C1690       C  0.85184835  0.24569721  0.91032737     0.79300
N1691       N  0.87589574  0.24082165  0.92896189    -0.79000
C1692       C  0.87057222  0.23392989  0.96415360     0.81700
N1693       N  0.84271986  0.23324281  0.98014138    -0.79000
C1694       C  0.82033785  0.24022570  0.96259096     0.81800
N1695       N  0.82452130  0.24641602  0.92747796    -0.80700
C1696       C  0.68502294  0.09863622  0.91566128     0.79300
N1697       N  0.69373422  0.07607972  0.93165798    -0.79000
C1698       C  0.70131438  0.07962991  0.96662677     0.81700
N1699       N  0.69880325  0.10469213  0.98600752    -0.79000
C1700       C  0.68927993  0.12675518  0.97101306     0.81800
N1701       N  0.68372260  0.12488409  0.93539950    -0.80700
C1702       C  0.68999714  0.08950894  0.64940331     0.79300
N1703       N  0.68799454  0.06100433  0.63077366    -0.79000
C1704       C  0.69396938  0.06378742  0.59535131     0.81700
N1705       N  0.70410742  0.09592741  0.57925730    -0.79000
C1706       C  0.70699317  0.12469643  0.59777398     0.81800
N1707       N  0.69937600  0.12115027  0.63266850    -0.80700
O1708       O  0.71267375  0.30587903  0.01648836    -0.81100
O1709       O  0.72489463  0.18451082  0.99524558    -0.81100
O1710       O  0.78162616  0.26247329  0.97501822    -0.81100
O1711       O  0.63478340  0.18830858  0.02208252    -0.81100
O1712       O  0.78813701  0.22915294  0.01405672    -0.81200
O1713       O  0.66619821  0.24008161  0.99698857    -0.81100
O1714       O  0.67098872  0.15316227  0.01573824    -0.81100
O1715       O  0.74453510  0.29776317  0.97680976    -0.81100
C1716       C  0.72906031  0.31402884  0.98724049     1.08600
C1717       C  0.69400873  0.15700404  0.99316596     1.08500
C1718       C  0.79463025  0.24351065  0.98399315     1.08600
C1719       C  0.63713781  0.21011094  0.99913969     1.08500
O1720       O  0.65793506  0.26058574  0.56269188    -0.81100
O1721       O  0.76938460  0.24269506  0.58152143    -0.81200
O1722       O  0.76785604  0.32208272  0.54818872    -0.81100
O1723       O  0.70322139  0.17773085  0.58530543    -0.81100
O1724       O  0.74537508  0.17180241  0.55852694    -0.81100
O1725       O  0.72581325  0.28121586  0.58223492    -0.81100
O1726       O  0.66389759  0.21821437  0.58980416    -0.81100
O1727       O  0.80598766  0.28685696  0.54585773    -0.81100
Co1728     Co  0.69439330  0.25723707  0.54045797     1.51500
Co1729     Co  0.74231948  0.21081523  0.53982923     1.51700
Co1730     Co  0.77106113  0.28822572  0.51203567     1.51600
Co1731     Co  0.67472723  0.19048815  0.55032993     1.51500
O1732       O  0.72343974  0.23946633  0.52465550    -1.43000
C1733       C  0.64849731  0.23718366  0.58686893     1.08500
C1734       C  0.80095169  0.26949716  0.57420200     1.08600
C1735       C  0.74934525  0.31421511  0.57639836     1.08500
C1736       C  0.71894511  0.15942599  0.57975785     1.08500
O1737       O  0.50875356  0.28884367  0.58468723    -0.81100
O1738       O  0.93083391  0.19545716  0.59510902    -0.81100
O1739       O  0.92999275  0.28978683  0.54331917    -0.81100
O1740       O  0.00744668  0.21561185  0.58073162    -0.81100
O1741       O  0.92507628  0.25497677  0.58730694    -0.81200
O1742       O  0.55645604  0.26802636  0.56825309    -0.81100
O1743       O  0.93801843  0.15889137  0.56172017    -0.81100
O1744       O  0.00685088  0.32482529  0.54537379    -0.81100
C1745       C  0.51835343  0.32059541  0.57431871     1.08600
C1746       C  0.92379599  0.16365257  0.58872955     1.08500
C1747       C  0.91836629  0.27755134  0.57423418     1.08600
C1748       C  0.54090816  0.23892159  0.58577264     1.08500
O1749       O  0.52505128  0.23349603  0.00805112    -0.81100
O1750       O  0.88862571  0.22508421  0.01950222    -0.81200
O1751       O  0.00136648  0.28555299  0.97723890    -0.81100
O1752       O  0.94374029  0.18215218  0.99128506    -0.81100
O1753       O  0.89619619  0.16811214  0.02506018    -0.81100
O1754       O  0.54248912  0.30131481  0.01791646    -0.81100
O1755       O  0.99712531  0.17369447  0.02126283    -0.81100
O1756       O  0.92990742  0.25140995  0.97809101    -0.81100
Co1757     Co  0.51277436  0.25814923  0.54826017     1.51500
Co1758     Co  0.91301174  0.21264725  0.55706628     1.51700
Co1759     Co  0.96710394  0.28558641  0.51236216     1.51600
Co1760     Co  0.97591227  0.20196551  0.53398111     1.51500
O1761       O  0.96256601  0.24075091  0.53617006    -1.43000
C1762       C  0.52236668  0.20219250  0.00487176     1.08500
C1763       C  0.89744685  0.23488775  0.98759366     1.08600
C1764       C  0.53416502  0.30256221  0.98638500     1.08500
C1765       C  0.90984456  0.16333154  0.99710627     1.08500
O1766       O  0.69688570  0.39577737  0.55277541    -0.81100
O1767       O  0.71961025  0.02922551  0.57833360    -0.81100
O1768       O  0.77848515  0.02821979  0.58147619    -0.81100
O1769       O  0.63432688  0.44488934  0.54408270    -0.81100
O1770       O  0.78849271  0.07862152  0.55493185    -0.81200
O1771       O  0.67234320  0.43978008  0.57788068    -0.81100
O1772       O  0.67360048  0.02131459  0.54703532    -0.81100
O1773       O  0.73847924  0.44662278  0.58029764    -0.81100
C1774       C  0.72268078  0.41153855  0.57490405     1.08600
C1775       C  0.69385969  0.03445644  0.57432576     1.08500
C1776       C  0.79764812  0.06351781  0.57779805     1.08600
C1777       C  0.64041041  0.43260114  0.57170143     1.08500
O1778       O  0.65232942  0.40710013  0.00983867    -0.81100
O1779       O  0.77223213  0.04609222  0.98977979    -0.81200
O1780       O  0.76756189  0.45223960  0.01145873    -0.81100
O1781       O  0.69460291  0.02237691  0.97418100    -0.81100
O1782       O  0.72843409  0.06533946  0.01259146    -0.81100
O1783       O  0.71514909  0.43140217  0.98928207    -0.81100
O1784       O  0.65763836  0.44757524  0.97173751    -0.81100
O1785       O  0.80378528  0.02662065  0.01309259    -0.81100
Co1786     Co  0.69821656  0.43762196  0.53497022     1.51500
Co1787     Co  0.74764999  0.03611976  0.53460045     1.51700
Co1788     Co  0.76544696  0.48808176  0.54386808     1.51600
Co1789     Co  0.66813747  0.48392888  0.51004455     1.51500
O1790       O  0.71618867  0.48639394  0.52102268    -1.43000
C1791       C  0.64467469  0.41469320  0.98035459     1.08500
C1792       C  0.80063798  0.04576731  0.99047456     1.08600
C1793       C  0.74421445  0.43272787  0.98871000     1.08500
C1794       C  0.70970582  0.05515748  0.98443402     1.08500
C1795       C  0.67985805  0.09580560  0.87663417    -0.20800
C1796       C  0.66518920  0.06169773  0.85868240     0.35400
C1797       C  0.66551200  0.06053936  0.82160794    -0.26800
C1798       C  0.68013082  0.09260000  0.80184009     0.01800
C1799       C  0.69344689  0.12651753  0.81958396     0.26600
C1800       C  0.69278687  0.12770834  0.85677199    -0.25900
N1801       N  0.65005535  0.02828170  0.87815743    -0.83300
H1802       H  0.65446405  0.03443161  0.80796714     0.12400
C1803       C  0.68147688  0.09015604  0.76262350     0.01800
N1804       N  0.70857647  0.15972504  0.79978968    -0.81900
H1805       H  0.70406196  0.15388683  0.87030538     0.17300
C1806       C  0.66509998  0.10424929  0.74173970    -0.26700
C1807       C  0.66673960  0.10348431  0.70471528     0.35300
C1808       C  0.68447320  0.08751494  0.68810491    -0.20800
C1809       C  0.69971845  0.07221253  0.70891177    -0.26000
C1810       C  0.69910039  0.07405761  0.74599226     0.26700
H1811       H  0.65115183  0.11612507  0.75444749     0.12400
N1812       N  0.65048896  0.11890852  0.68392113    -0.83300
H1813       H  0.71369860  0.06037130  0.69620447     0.17300
N1814       N  0.71729667  0.06072510  0.76680526    -0.81900
H1815       H  0.63888559  0.12988861  0.70014546     0.32900
H1816       H  0.62929162  0.09755005  0.66936810     0.37400
H1817       H  0.72892754  0.04978650  0.75062422     0.32900
H1818       H  0.73873331  0.08324864  0.78008743     0.29600
H1819       H  0.71688978  0.18228262  0.81662585     0.32900
H1820       H  0.73185154  0.16373339  0.78713892     0.29600
H1821       H  0.62733307  0.02470037  0.89162498     0.37400
H1822       H  0.64077236  0.00573421  0.86108337     0.32900
C1823       C  0.86099014  0.27380942  0.68609664    -0.20800
C1824       C  0.85021535  0.29277052  0.70866759     0.35400
C1825       C  0.85052548  0.28859107  0.74539501    -0.26800
C1826       C  0.86113777  0.26570548  0.75973462     0.01800
C1827       C  0.87117053  0.24619092  0.73722425     0.26600
C1828       C  0.87151447  0.25086484  0.70061645    -0.25900
N1829       N  0.83945933  0.31644400  0.69427106    -0.83300
H1830       H  0.84234974  0.30307161  0.76294837     0.12400
C1831       C  0.85971032  0.26081031  0.79833450     0.01800
N1832       N  0.87980807  0.22086735  0.75160414    -0.81900
H1833       H  0.87930693  0.23592810  0.68324296     0.17300
C1834       C  0.82698023  0.23399024  0.81345726    -0.26700
C1835       C  0.82419308  0.22829223  0.84998750     0.35300
C1836       C  0.85480385  0.24991243  0.87170575    -0.20800
C1837       C  0.88778258  0.27640490  0.85650927    -0.26000
C1838       C  0.89045428  0.28234291  0.81989582     0.26700
H1839       H  0.80357363  0.21747133  0.79662687     0.12400
N1840       N  0.79051280  0.20039055  0.86515609    -0.83300
H1841       H  0.91114106  0.29307711  0.87333715     0.17300
N1842       N  0.92382423  0.31074203  0.80466742    -0.81900
H1843       H  0.77085293  0.18681331  0.84551457     0.32900
H1844       H  0.79484440  0.18081739  0.87613760     0.37400
H1845       H  0.94353471  0.32457128  0.82423144     0.32900
H1846       H  0.93355323  0.29829709  0.78792638     0.29600
H1847       H  0.88550453  0.20779571  0.73140426     0.32900
H1848       H  0.90353075  0.23585547  0.76650633     0.29600
H1849       H  0.86210776  0.33805175  0.68193655     0.37400
H1850       H  0.83205944  0.32809686  0.71443617     0.32900
C1851       C  0.86369385  0.10280732  0.88073920    -0.20800
C1852       C  0.84838087  0.06949855  0.86130165     0.35400
C1853       C  0.84716317  0.07011353  0.82445440    -0.26800
C1854       C  0.86122809  0.10317089  0.80675259     0.01800
C1855       C  0.87715224  0.13650637  0.82575327     0.26600
C1856       C  0.87833759  0.13604476  0.86273445    -0.25900
N1857       N  0.83441402  0.03521318  0.87898303    -0.83300
H1858       H  0.83538670  0.04473381  0.80935682     0.12400
C1859       C  0.85998280  0.10228611  0.76805441     0.01800
N1860       N  0.89141830  0.17045698  0.80740245    -0.81900
H1861       H  0.88987170  0.16156766  0.87752566     0.17300
C1862       C  0.83102877  0.10141349  0.75085511    -0.26700
C1863       C  0.82884415  0.10002669  0.71388632     0.35300
C1864       C  0.85654193  0.09998713  0.69417544    -0.20800
C1865       C  0.88523732  0.10044755  0.71161940    -0.26000
C1866       C  0.88711110  0.10137121  0.74849925     0.26700
H1867       H  0.81021554  0.10188529  0.76635642     0.12400
N1868       N  0.79972930  0.10050495  0.69642430    -0.83300
H1869       H  0.90641419  0.10042301  0.69635089     0.17300
N1870       N  0.91635023  0.10138279  0.76626724    -0.81900
H1871       H  0.78351100  0.10367146  0.71481522     0.32900
H1872       H  0.78310611  0.07479548  0.68455026     0.37400
H1873       H  0.93389085  0.10026358  0.74798168     0.32900
H1874       H  0.93149936  0.12634788  0.77982806     0.29600
H1875       H  0.90167202  0.19247944  0.82529677     0.32900
H1876       H  0.91335713  0.17442467  0.79224064     0.29600
H1877       H  0.85624976  0.03584915  0.89128047     0.37400
H1878       H  0.82361803  0.01338217  0.86083570     0.32900
C1879       C  0.58099031  0.21654725  0.88925480    -0.20800
C1880       C  0.56229606  0.23103172  0.87212611     0.35400
C1881       C  0.56516816  0.23553028  0.83527393    -0.26800
C1882       C  0.58542447  0.22507324  0.81490767     0.01800
C1883       C  0.60449992  0.21119572  0.83193827     0.26600
C1884       C  0.60235870  0.20745285  0.86877514    -0.25900
N1885       N  0.54103151  0.24182672  0.89197360    -0.83300
H1886       H  0.55112873  0.24687886  0.82223550     0.12400
C1887       C  0.58589023  0.22793944  0.77573005     0.01800
N1888       N  0.62553810  0.20036649  0.81169005    -0.81900
H1889       H  0.61687040  0.19643661  0.88144472     0.17300
C1890       C  0.61926819  0.24757439  0.75818156    -0.26700
C1891       C  0.62108925  0.24892394  0.72115113     0.35300
C1892       C  0.58869144  0.23021794  0.70107078    -0.20800
C1893       C  0.55522548  0.21197402  0.71868858    -0.26000
C1894       C  0.55345718  0.21032240  0.75574038     0.26700
H1895       H  0.64408256  0.26182461  0.77353616     0.12400
N1896       N  0.65569532  0.26958463  0.70398577    -0.83300
H1897       H  0.53030773  0.19801916  0.70344807     0.17300
N1898       N  0.51887410  0.19040685  0.77307339    -0.81900
H1899       H  0.67677187  0.28107799  0.72261982     0.31100
H1900       H  0.65656727  0.29141800  0.69128489     0.37400
H1901       H  0.49773774  0.17952473  0.75465444     0.32900
H1902       H  0.51737618  0.16815465  0.78572318     0.29600
H1903       H  0.63822269  0.19108542  0.82816974     0.32900
H1904       H  0.60759875  0.17814366  0.79561147     0.29600
H1905       H  0.51728058  0.21786534  0.89966873     0.37400
H1906       H  0.03009384  0.25146957  0.87507795     0.32900
C1907       C  0.58717261  0.34969708  0.86890802    -0.20800
C1908       C  0.55520761  0.33810856  0.84935577     0.35400
C1909       C  0.55676687  0.33859641  0.81235800    -0.26800
C1910       C  0.58953543  0.35030257  0.79469225     0.01800
C1911       C  0.62101297  0.36007216  0.81418230     0.26600
C1912       C  0.61962674  0.36002647  0.85117063    -0.25900
N1913       N  0.52169156  0.32729904  0.86705856    -0.83300
H1914       H  0.53264866  0.33118899  0.79720387     0.12400
C1915       C  0.59092007  0.35491674  0.75598271     0.01800
N1916       N  0.65424635  0.37033374  0.79626661    -0.81900
H1917       H  0.64397742  0.36814992  0.86625755     0.17300
C1918       C  0.61299862  0.39006069  0.74212072    -0.26700
C1919       C  0.61209056  0.39655819  0.70604001     0.35300
C1920       C  0.58885266  0.36700319  0.68325300    -0.20800
C1921       C  0.56778921  0.33155161  0.69716807    -0.26000
C1922       C  0.56863025  0.32525362  0.73327936     0.26700
H1923       H  0.62992352  0.41279795  0.75984193     0.12400
N1924       N  0.63365921  0.43321054  0.69288704    -0.83300
H1925       H  0.55038109  0.30861653  0.67985435     0.17300
N1926       N  0.54677754  0.28895927  0.74713211    -0.81900
H1927       H  0.64969244  0.45151268  0.71301000     0.32900
H1928       H  0.61588484  0.44122388  0.68478858     0.37400
H1929       H  0.53216930  0.27006525  0.72698381     0.32900
H1930       H  0.56450113  0.28179364  0.75753230     0.29600
H1931       H  0.67499964  0.37734993  0.81447860     0.32900
H1932       H  0.65018548  0.34727006  0.78231361     0.29600
H1933       H  0.52501802  0.35031735  0.88043728     0.37400
H1934       H  0.00066439  0.31299306  0.84771266     0.32900
C1935       C  0.73857809  0.36824070  0.68829963    -0.20800
C1936       C  0.72752221  0.38952267  0.70707242     0.35400
C1937       C  0.72758803  0.38979252  0.74389175    -0.26800
C1938       C  0.73793282  0.36899134  0.76269503     0.01800
C1939       C  0.74828544  0.34715220  0.74448368     0.26600
C1940       C  0.74853541  0.34700591  0.70746067    -0.25900
N1941       N  0.71581630  0.41073049  0.68920236    -0.83300
H1942       H  0.71930036  0.40633085  0.75794429     0.12400
C1943       C  0.73753168  0.37037162  0.80153564     0.01800
N1944       N  0.75879052  0.32551708  0.76366891    -0.81900
H1945       H  0.75684751  0.33039480  0.69364343     0.17300
C1946       C  0.71439175  0.33824166  0.81993870    -0.26700
C1947       C  0.71261961  0.33861600  0.85683430     0.35300
C1948       C  0.73497201  0.37188565  0.87553404    -0.20800
C1949       C  0.75737834  0.40417687  0.85694426    -0.26000
C1950       C  0.75907156  0.40371953  0.82006749     0.26700
H1951       H  0.69732185  0.31294345  0.80536228     0.12400
N1952       N  0.68791294  0.30553310  0.87522662    -0.83300
H1953       H  0.77451388  0.42965068  0.87126680     0.17300
N1954       N  0.78295391  0.43679668  0.80131623    -0.81900
H1955       H  0.67382253  0.28360480  0.85749968     0.32900
H1956       H  0.66850706  0.30944434  0.88746434     0.37400
H1957       H  0.79679628  0.45900273  0.81887360     0.32900
H1958       H  0.80257990  0.43342694  0.78893640     0.29600
H1959       H  0.76534780  0.31075077  0.74634829     0.32900
H1960       H  0.78247979  0.34356873  0.77773564     0.29600
H1961       H  0.73253843  0.43814283  0.69719639     0.37400
H1962       H  0.68934186  0.40175195  0.69716112     0.32900
C1963       C  0.74067101  0.86851469  0.14827633     0.79300
N1964       N  0.73427772  0.89116577  0.12938660    -0.79000
C1965       C  0.73348012  0.88963446  0.09384183     0.81700
N1966       N  0.74038967  0.86590964  0.07671319    -0.79000
C1967       C  0.74810986  0.84379245  0.09513791     0.81800
N1968       N  0.74717464  0.84445246  0.13097124    -0.80700
C1969       C  0.73835805  0.87435509  0.41321830     0.79300
N1970       N  0.74418429  0.90441724  0.43165804    -0.79000
C1971       C  0.74689015  0.90539240  0.46732595     0.81700
N1972       N  0.74153486  0.87562690  0.48454461    -0.79000
C1973       C  0.73520228  0.84552421  0.46646010     0.81800
N1974       N  0.73426556  0.84504941  0.43078465    -0.80700
C1975       C  0.58731981  0.85210592  0.40712905     0.79300
N1976       N  0.61554232  0.88207635  0.42358829    -0.79000
C1977       C  0.61665151  0.88400889  0.45931304     0.81700
N1978       N  0.59053279  0.85657997  0.47810042    -0.79000
C1979       C  0.56222620  0.82756094  0.46245439     0.81800
N1980       N  0.56005303  0.82505487  0.42671231    -0.80700
C1981       C  0.58446795  0.87336468  0.14498609     0.79300
N1982       N  0.61253281  0.90083819  0.12677603    -0.79000
C1983       C  0.60874499  0.90539129  0.09205044     0.81700
N1984       N  0.57663962  0.88139431  0.07525716    -0.79000
C1985       C  0.54857702  0.85323920  0.09318058     0.81800
N1986       N  0.55310282  0.84942566  0.12784791    -0.80700
C1987       C  0.58956425  0.72961383  0.16081469     0.79300
N1988       N  0.56284426  0.73042664  0.14251332    -0.79000
C1989       C  0.56441829  0.73231710  0.10677747     0.81700
N1990       N  0.59257767  0.73413318  0.08986465    -0.79000
C1991       C  0.61885800  0.73284048  0.10723336     0.81800
N1992       N  0.61771122  0.73077503  0.14298516    -0.80700
C1993       C  0.57889766  0.71068422  0.42724354     0.79300
N1994       N  0.55033738  0.70597272  0.44682922    -0.79000
C1995       C  0.54859662  0.69936251  0.48198126     0.81700
N1996       N  0.57613217  0.69856646  0.49781586    -0.79000
C1997       C  0.60520674  0.70415589  0.47887493     0.81800
N1998       N  0.60671408  0.71065632  0.44380434    -0.80700
C1999       C  0.86330381  0.60318008  0.41992513     0.79300
N2000       N  0.88876134  0.63246850  0.43939662    -0.79000
C2001       C  0.88552055  0.63235941  0.47503876     0.81700
N2002       N  0.85740670  0.60316245  0.49092884    -0.79000
C2003       C  0.83235847  0.57401562  0.47192574     0.81800
N2004       N  0.83467903  0.57438127  0.43637008    -0.80700
C2005       C  0.85889583  0.60339783  0.15560999     0.79300
N2006       N  0.89028532  0.62897433  0.13995563    -0.79000
C2007       C  0.89186871  0.63294737  0.10455022     0.81700
N2008       N  0.86136451  0.61227095  0.08483477    -0.79000
C2009       C  0.82975980  0.58673438  0.10023800     0.81800
N2010       N  0.82869896  0.58203371  0.13564050    -0.80700
C2011       C  0.86178735  0.77585677  0.14694054     0.79300
N2012       N  0.83277276  0.77263802  0.12952931    -0.79000
C2013       C  0.83327362  0.77500999  0.09376642     0.81700
N2014       N  0.86288321  0.78002988  0.07547593    -0.79000
C2015       C  0.89171507  0.78257395  0.09268891     0.81800
N2016       N  0.89046991  0.77986989  0.12832412    -0.80700
C2017       C  0.85185218  0.74401494  0.40965723     0.79300
N2018       N  0.87587630  0.73943125  0.42861062    -0.79000
C2019       C  0.87044714  0.73286389  0.46380455     0.81700
N2020       N  0.84251505  0.73223301  0.47950555    -0.79000
C2021       C  0.82014306  0.73899098  0.46163499     0.81800
N2022       N  0.82438082  0.74480355  0.42643462    -0.80700
C2023       C  0.68647602  0.59877251  0.41475217     0.79300
N2024       N  0.69466072  0.57601352  0.43114660    -0.79000
C2025       C  0.70124227  0.57923085  0.46630887     0.81700
N2026       N  0.69823065  0.60416294  0.48543104    -0.79000
C2027       C  0.68920615  0.62642507  0.46995767     0.81800
N2028       N  0.68471789  0.62488559  0.43421531    -0.80700
C2029       C  0.68795730  0.58959251  0.14853024     0.79300
N2030       N  0.68625658  0.56114459  0.13016500    -0.79000
C2031       C  0.69276837  0.56391674  0.09491689     0.81700
N2032       N  0.70306657  0.59597341  0.07862724    -0.79000
C2033       C  0.70562813  0.62473471  0.09683210     0.81800
N2034       N  0.69751571  0.62124279  0.13165826    -0.80700
O2035       O  0.71364528  0.80618474  0.51507985    -0.81100
O2036       O  0.72440817  0.68455607  0.49345347    -0.81100
O2037       O  0.78215975  0.76217246  0.47403075    -0.81100
O2038       O  0.63498831  0.68861172  0.52077591    -0.81100
O2039       O  0.78780474  0.72820287  0.51293029    -0.81200
O2040       O  0.66646564  0.74044517  0.49573199    -0.81100
O2041       O  0.67087376  0.65291507  0.51462321    -0.81100
O2042       O  0.74572968  0.79810429  0.47560976    -0.81100
C2043       C  0.73021425  0.81437522  0.48588371     1.08600
C2044       C  0.69370670  0.65677534  0.49179858     1.08500
C2045       C  0.79459753  0.74268097  0.48292357     1.08600
C2046       C  0.63734004  0.71051609  0.49795256     1.08500
O2047       O  0.65921304  0.76253248  0.06166039    -0.81100
O2048       O  0.76918949  0.74182974  0.08069124    -0.81200
O2049       O  0.76940444  0.82295657  0.04786652    -0.81100
O2050       O  0.70285858  0.67830096  0.08418088    -0.81100
O2051       O  0.74379394  0.67097418  0.05671156    -0.81100
O2052       O  0.72677850  0.78204998  0.08134724    -0.81100
O2053       O  0.66465250  0.71970934  0.08852142    -0.81100
O2054       O  0.80645374  0.78643547  0.04575694    -0.81100
Co2055     Co  0.69546737  0.75874196  0.03939246     1.51500
Co2056     Co  0.74206473  0.71095003  0.03842125     1.51700
Co2057     Co  0.77244164  0.78902202  0.01162767     1.51600
Co2058     Co  0.67509486  0.69173066  0.04906265     1.51500
O2059       O  0.72419352  0.74056818  0.02361734    -1.43000
C2060       C  0.64952464  0.73893526  0.08570702     1.08500
C2061       C  0.80095280  0.76854859  0.07383707     1.08600
C2062       C  0.75052325  0.81502541  0.07583406     1.08500
C2063       C  0.71788868  0.65937850  0.07850537     1.08500
O2064       O  0.50848456  0.78985077  0.08471156    -0.81100
O2065       O  0.93128952  0.69554697  0.09457191    -0.81100
O2066       O  0.92989824  0.78940472  0.04247439    -0.81100
O2067       O  0.00756683  0.71535163  0.07966177    -0.81100
O2068       O  0.92589369  0.75519871  0.08661741    -0.81200
O2069       O  0.55654744  0.76937752  0.06862122    -0.81100
O2070       O  0.93801964  0.65872603  0.06110744    -0.81100
O2071       O  0.00668538  0.82462978  0.04420588    -0.81100
C2072       C  0.51805558  0.82153192  0.07412665     1.08600
C2073       C  0.92402439  0.66365851  0.08821585     1.08500
C2074       C  0.91871063  0.77740321  0.07354235     1.08600
C2075       C  0.54128744  0.73979590  0.08539005     1.08500
O2076       O  0.52486357  0.73309530  0.50751949    -0.81100
O2077       O  0.88883124  0.72541361  0.51949979    -0.81200
O2078       O  0.00139648  0.78586166  0.47672032    -0.81100
O2079       O  0.94377454  0.68269770  0.49126167    -0.81100
O2080       O  0.89638144  0.66859203  0.52532149    -0.81100
O2081       O  0.54233092  0.80092867  0.51736451    -0.81100
O2082       O  0.99766773  0.67468962  0.52062662    -0.81100
O2083       O  0.92990337  0.75117282  0.47782361    -0.81100
Co2084     Co  0.51284998  0.75917380  0.04855493     1.51500
Co2085     Co  0.91328589  0.71263742  0.05662998     1.51700
Co2086     Co  0.96697174  0.78521231  0.01142277     1.51600
Co2087     Co  0.97581712  0.70170643  0.03311196     1.51500
O2088       O  0.96260823  0.74054426  0.03538663    -1.43000
C2089       C  0.52217765  0.70180256  0.50423457     1.08500
C2090       C  0.89748073  0.73457766  0.48744583     1.08600
C2091       C  0.53399300  0.80211009  0.48583616     1.08500
C2092       C  0.90992663  0.66374924  0.49733658     1.08500
O2093       O  0.69700310  0.89582266  0.05185866    -0.81100
O2094       O  0.71884940  0.52962469  0.07867740    -0.81100
O2095       O  0.77829700  0.52882335  0.08173951    -0.81100
O2096       O  0.63447631  0.94551803  0.04389996    -0.81100
O2097       O  0.78794554  0.57929211  0.05568283    -0.81200
O2098       O  0.67222370  0.93959699  0.07739332    -0.81100
O2099       O  0.67289465  0.52141971  0.04702280    -0.81100
O2100       O  0.73808411  0.94654807  0.07986983    -0.81100
C2101       C  0.72269085  0.91157957  0.07409770     1.08600
C2102       C  0.69297353  0.53463211  0.07436497     1.08500
C2103       C  0.79737208  0.56413894  0.07824801     1.08600
C2104       C  0.64042664  0.93289994  0.07133529     1.08500
O2105       O  0.65249729  0.90653863  0.50903570    -0.81100
O2106       O  0.77242624  0.54648145  0.49012244    -0.81200
O2107       O  0.76788630  0.95192051  0.51112926    -0.81100
O2108       O  0.69431386  0.52188174  0.47424669    -0.81100
O2109       O  0.72801125  0.56497445  0.51266511    -0.81100
O2110       O  0.71564452  0.93121669  0.48849035    -0.81100
O2111       O  0.65757305  0.94721757  0.47132871    -0.81100
O2112       O  0.80368356  0.52620114  0.51260459    -0.81100
Co2113     Co  0.69829918  0.93779628  0.03443655     1.51500
Co2114     Co  0.74714434  0.53678237  0.03513671     1.51700
Co2115     Co  0.76532641  0.98827672  0.04390939     1.51600
Co2116     Co  0.66831007  0.98453006  0.00999601     1.51500
O2117       O  0.71614495  0.98661268  0.02089655    -1.43000
C2118       C  0.64466571  0.91427350  0.47972940     1.08500
C2119       C  0.80069941  0.54586404  0.49044746     1.08600
C2120       C  0.74480111  0.93269082  0.48809313     1.08500
C2121       C  0.70936113  0.55469902  0.48445198     1.08500
C2122       C  0.68186392  0.59605303  0.37571634    -0.20800
C2123       C  0.66620532  0.56181490  0.35784986     0.35400
C2124       C  0.66576253  0.56051173  0.32078094    -0.26800
C2125       C  0.68088361  0.59258836  0.30097591     0.01800
C2126       C  0.69597360  0.62675510  0.31866946     0.26600
C2127       C  0.69581058  0.62807930  0.35584488    -0.25900
N2128       N  0.65074684  0.52841420  0.37739575    -0.83300
H2129       H  0.65367371  0.53427732  0.30717353     0.12400
C2130       C  0.68112676  0.58995170  0.26175767     0.01800
N2131       N  0.71235283  0.66001986  0.29882284    -0.81900
H2132       H  0.70812969  0.65437238  0.36935501     0.17300
C2133       C  0.66515587  0.60496228  0.24155399    -0.26700
C2134       C  0.66604733  0.60422207  0.20448179     0.35300
C2135       C  0.68285460  0.58763829  0.18723967    -0.20800
C2136       C  0.69752040  0.57132648  0.20740342    -0.26000
C2137       C  0.69739849  0.57284179  0.24445911     0.26700
H2138       H  0.65213791  0.61752124  0.25483248     0.12400
N2139       N  0.64996677  0.62022867  0.18431298    -0.83300
H2140       H  0.71070236  0.55889015  0.19420736     0.17300
N2141       N  0.71474557  0.55811040  0.26456802    -0.81900
H2142       H  0.63899132  0.63151467  0.20098981     0.32900
H2143       H  0.62830536  0.59911757  0.16997776     0.37400
H2144       H  0.72525361  0.54637307  0.24791511     0.32900
H2145       H  0.73689934  0.58002033  0.27772066     0.29600
H2146       H  0.72231696  0.68279884  0.31569929     0.32900
H2147       H  0.73475842  0.66253246  0.28560520     0.29600
H2148       H  0.62845725  0.52540525  0.39126065     0.37400
H2149       H  0.64077399  0.50575484  0.36035661     0.32900
C2150       C  0.86148209  0.77221282  0.18571867    -0.20800
C2151       C  0.85003511  0.79045725  0.20846449     0.35400
C2152       C  0.85089380  0.78652393  0.24517167    -0.26800
C2153       C  0.86283123  0.76468236  0.25936130     0.01800
C2154       C  0.87418838  0.74638615  0.23676182     0.26600
C2155       C  0.87376839  0.75064254  0.20013348    -0.25900
N2156       N  0.83806849  0.81321044  0.19425553    -0.83300
H2157       H  0.84197488  0.80027514  0.26283260     0.12400
C2158       C  0.86120845  0.75940558  0.29789441     0.01800
N2159       N  0.88524729  0.72293369  0.25112901    -0.81900
H2160       H  0.88245593  0.73652799  0.18268756     0.17300
C2161       C  0.82987027  0.72960483  0.31223655    -0.26700
C2162       C  0.82661277  0.72387949  0.34876334     0.35300
C2163       C  0.85542028  0.74834750  0.37116426    -0.20800
C2164       C  0.88714009  0.77775651  0.35678648    -0.26000
C2165       C  0.89018675  0.78376980  0.32020291     0.26700
H2166       H  0.80782051  0.71096387  0.29483028     0.12400
N2167       N  0.79425772  0.69329147  0.36326066    -0.83300
H2168       H  0.90909522  0.79651770  0.37421436     0.17300
N2169       N  0.92210292  0.81483464  0.30568893    -0.81900
H2170       H  0.77584016  0.67785120  0.34317358     0.32900
H2171       H  0.80151531  0.67614580  0.37499301     0.37400
H2172       H  0.94057650  0.83039149  0.32572427     0.32900
H2173       H  0.93480863  0.80495008  0.28958178     0.29600
H2174       H  0.89203871  0.71078337  0.23090623     0.32900
H2175       H  0.90884896  0.73930339  0.26587034     0.29600
H2176       H  0.86018418  0.83510631  0.18165782     0.37400
H2177       H  0.83047669  0.82456469  0.21456546     0.32900
C2178       C  0.86519793  0.60332656  0.38100333    -0.20800
C2179       C  0.84986886  0.57017222  0.36135182     0.35400
C2180       C  0.84926307  0.57111339  0.32447886    -0.26800
C2181       C  0.86401987  0.60435916  0.30694608     0.01800
C2182       C  0.88013961  0.63757904  0.32617817     0.26600
C2183       C  0.88069614  0.63677239  0.36317966    -0.25900
N2184       N  0.83520973  0.53570082  0.37884750    -0.83300
H2185       H  0.83730180  0.54581460  0.30922985     0.12400
C2186       C  0.86254617  0.60364338  0.26822436     0.01800
N2187       N  0.89495088  0.67174346  0.30807509    -0.81900
H2188       H  0.89232424  0.66221716  0.37811647     0.17300
C2189       C  0.83247905  0.60084112  0.25141082    -0.26700
C2190       C  0.82969392  0.59904345  0.21446260     0.35300
C2191       C  0.85789821  0.60049858  0.19429489    -0.20800
C2192       C  0.88773011  0.60285924  0.21139566    -0.26000
C2193       C  0.89022342  0.60421990  0.24826748     0.26700
H2194       H  0.81120418  0.60007095  0.26721634     0.12400
N2195       N  0.79934258  0.59755573  0.19749702    -0.83300
H2196       H  0.90929930  0.60392710  0.19585882     0.17300
N2197       N  0.92050190  0.60588187  0.26560116    -0.81900
H2198       H  0.78281940  0.59990998  0.21614302     0.32900
H2199       H  0.78348045  0.57152503  0.18600205     0.37400
H2200       H  0.93832863  0.60568395  0.24705673     0.32900
H2201       H  0.93492648  0.63095687  0.27910425     0.29600
H2202       H  0.90515192  0.69362157  0.32614117     0.32900
H2203       H  0.91700725  0.67566858  0.29316191     0.29600
H2204       H  0.85668141  0.53591833  0.39148916     0.37400
H2205       H  0.82448590  0.51401590  0.36055307     0.32900
C2206       C  0.58051478  0.71634663  0.38825292    -0.20800
C2207       C  0.55894649  0.72715862  0.37049813     0.35400
C2208       C  0.56213541  0.73188881  0.33367519    -0.26800
C2209       C  0.58529045  0.72487258  0.31383258     0.01800
C2210       C  0.60704685  0.71450575  0.33145082     0.26600
C2211       C  0.60472154  0.71080431  0.36827934    -0.25900
N2212       N  0.53415002  0.73371106  0.38960302    -0.83300
H2213       H  0.54597075  0.74056869  0.32021641     0.12400
C2214       C  0.58583090  0.72740914  0.27458802     0.01800
N2215       N  0.63101736  0.70711917  0.31182086    -0.81900
H2216       H  0.62144331  0.70257267  0.38130448     0.17300
C2217       C  0.61905201  0.74912450  0.25719340    -0.26700
C2218       C  0.62102519  0.75047213  0.22015976     0.35300
C2219       C  0.58895300  0.72973887  0.19995634    -0.20800
C2220       C  0.55555528  0.70931030  0.21734624    -0.26000
C2221       C  0.55364822  0.70759775  0.25437591     0.26700
H2222       H  0.64360785  0.76511741  0.27265700     0.12400
N2223       N  0.65537425  0.77328100  0.20309737    -0.83300
H2224       H  0.53087921  0.69379795  0.20192097     0.17300
N2225       N  0.51920655  0.68535925  0.27144818    -0.81900
H2226       H  0.67628233  0.78641134  0.22180053     0.31100
H2227       H  0.65423017  0.79389824  0.19009354     0.37400
H2228       H  0.49825847  0.67305094  0.25286038     0.32900
H2229       H  0.51967565  0.66414349  0.28416691     0.29600
H2230       H  0.64546533  0.70024723  0.32870663     0.32900
H2231       H  0.61500459  0.68414071  0.29573516     0.29600
H2232       H  0.51219654  0.70820304  0.39708820     0.37400
H2233       H  0.02495086  0.74749567  0.37327207     0.32900
C2234       C  0.58665574  0.84931045  0.36825969    -0.20800
C2235       C  0.55419525  0.83544352  0.34877464     0.35400
C2236       C  0.55568745  0.83635098  0.31176701    -0.26800
C2237       C  0.58882471  0.85055262  0.29404577     0.01800
C2238       C  0.62081492  0.86225251  0.31340947     0.26600
C2239       C  0.61951154  0.86190868  0.35037000    -0.25900
N2240       N  0.52014225  0.82185313  0.36651703    -0.83300
H2241       H  0.53113874  0.82729244  0.29667455     0.12400
C2242       C  0.58996606  0.85562267  0.25544597     0.01800
N2243       N  0.65446351  0.87467848  0.29536995    -0.81900
H2244       H  0.64427657  0.87160202  0.36531357     0.17300
C2245       C  0.61022774  0.89122319  0.24210005    -0.26700
C2246       C  0.60947831  0.89781333  0.20604044     0.35300
C2247       C  0.58815087  0.86798486  0.18285967    -0.20800
C2248       C  0.56874701  0.83221757  0.19624005    -0.26000
C2249       C  0.56957047  0.82575251  0.23229884     0.26700
H2250       H  0.62570282  0.91409135  0.26015785     0.12400
N2251       N  0.62925417  0.93470707  0.19322570    -0.83300
H2252       H  0.55280524  0.80917562  0.17850148     0.17300
N2253       N  0.54973409  0.78907653  0.24560470    -0.81900
H2254       H  0.64390951  0.95330940  0.21367263     0.32900
H2255       H  0.61031506  0.94093489  0.18451252     0.37400
H2256       H  0.53629616  0.77014207  0.22514316     0.32900
H2257       H  0.56868462  0.78357013  0.25595993     0.29600
H2258       H  0.67552319  0.88260212  0.31347725     0.32900
H2259       H  0.65177426  0.85236272  0.28108130     0.29600
H2260       H  0.52143712  0.84387412  0.38004670     0.37400
H2261       H  0.99923778  0.81596796  0.34853688     0.32900
C2262       C  0.73950453  0.86950169  0.18737377    -0.20800
C2263       C  0.72522936  0.88817387  0.20569641     0.35400
C2264       C  0.72619325  0.88975550  0.24249862    -0.26800
C2265       C  0.73978989  0.87201431  0.26164091     0.01800
C2266       C  0.75327043  0.85265459  0.24389605     0.26600
C2267       C  0.75313234  0.85168116  0.20688829    -0.25900
N2268       N  0.70896324  0.90496498  0.18736710    -0.83300
H2269       H  0.71576518  0.90457066  0.25623505     0.12400
C2270       C  0.73884802  0.87319432  0.30039111     0.01800
N2271       N  0.76724443  0.83433341  0.26359472    -0.81900
H2272       H  0.76401813  0.83718649  0.19334668     0.17300
C2273       C  0.71600193  0.84073703  0.31841385    -0.26700
C2274       C  0.71433663  0.84054557  0.35531596     0.35300
C2275       C  0.73658744  0.87356145  0.37439105    -0.20800
C2276       C  0.75852327  0.90626469  0.35612465    -0.26000
C2277       C  0.75998694  0.90637327  0.31920003     0.26700
H2278       H  0.69926208  0.81556536  0.30352926     0.12400
N2279       N  0.68988102  0.80712717  0.37334385    -0.83300
H2280       H  0.77544427  0.93161331  0.37070489     0.17300
N2281       N  0.78322812  0.93980751  0.30068664    -0.81900
H2282       H  0.67586487  0.78545048  0.35534613     0.32900
H2283       H  0.67038872  0.81066271  0.38593070     0.37400
H2284       H  0.79681781  0.96184710  0.31843793     0.32900
H2285       H  0.80311469  0.93710951  0.28792555     0.29600
H2286       H  0.77577904  0.82099066  0.24660979     0.32900
H2287       H  0.79029008  0.85439393  0.27726482     0.29600
H2288       H  0.72292697  0.93278872  0.19435716     0.37400
H2289       H  0.68215664  0.89302779  0.19592293     0.32900
C2290       C  0.74064027  0.86815607  0.64831356     0.79300
N2291       N  0.73428201  0.89086400  0.62944959    -0.79000
C2292       C  0.73358320  0.88941860  0.59388657     0.81700
N2293       N  0.74053081  0.86573038  0.57674728    -0.79000
C2294       C  0.74819017  0.84355836  0.59513826     0.81800
N2295       N  0.74718711  0.84413821  0.63097275    -0.80700
C2296       C  0.73938625  0.87515889  0.91336878     0.79300
N2297       N  0.74482953  0.90511050  0.93177916    -0.79000
C2298       C  0.74693838  0.90587490  0.96751050     0.81700
N2299       N  0.74140555  0.87603588  0.98474684    -0.79000
C2300       C  0.73548570  0.84607584  0.96667020     0.81800
N2301       N  0.73513440  0.84582381  0.93099766    -0.80700
C2302       C  0.58724214  0.85299008  0.90731395     0.79300
N2303       N  0.61543006  0.88287208  0.92388307    -0.79000
C2304       C  0.61655592  0.88456129  0.95960086     0.81700
N2305       N  0.59049714  0.85698597  0.97828903    -0.79000
C2306       C  0.56220523  0.82805037  0.96254614     0.81800
N2307       N  0.55999335  0.82578658  0.92679141    -0.80700
C2308       C  0.58496617  0.87313141  0.64480763     0.79300
N2309       N  0.61294032  0.90056098  0.62647683    -0.79000
C2310       C  0.60904378  0.90498567  0.59174654     0.81700
N2311       N  0.57689823  0.88089687  0.57505693    -0.79000
C2312       C  0.54891181  0.85277101  0.59309395     0.81800
N2313       N  0.55356274  0.84908093  0.62777061    -0.80700
C2314       C  0.59006891  0.72974097  0.66094166     0.79300
N2315       N  0.56336339  0.73055052  0.64261245    -0.79000
C2316       C  0.56493518  0.73238978  0.60688511     0.81700
N2317       N  0.59305114  0.73412567  0.58999038    -0.79000
C2318       C  0.61930957  0.73281575  0.60736523     0.81800
N2319       N  0.61819370  0.73082195  0.64312889    -0.80700
C2320       C  0.57859688  0.71079808  0.92727977     0.79300
N2321       N  0.55003700  0.70614851  0.94681817    -0.79000
C2322       C  0.54836049  0.69974920  0.98200900     0.81700
N2323       N  0.57594724  0.69908960  0.99791095    -0.79000
C2324       C  0.60498966  0.70456528  0.97897759     0.81800
N2325       N  0.60643571  0.71086068  0.94387760    -0.80700
C2326       C  0.86391666  0.60276886  0.91979554     0.79300
N2327       N  0.88926508  0.63214318  0.93925558    -0.79000
C2328       C  0.88568061  0.63230549  0.97483736     0.81700
N2329       N  0.85736376  0.60329928  0.99068962    -0.79000
C2330       C  0.83240847  0.57408826  0.97172385     0.81800
N2331       N  0.83505696  0.57414489  0.93619350    -0.80700
C2332       C  0.85918843  0.60294285  0.65563794     0.79300
N2333       N  0.89043073  0.62881063  0.64000140    -0.79000
C2334       C  0.89184953  0.63304998  0.60464556     0.81700
N2335       N  0.86131619  0.61230034  0.58496747    -0.79000
C2336       C  0.82983741  0.58645305  0.60035938     0.81800
N2337       N  0.82895480  0.58152576  0.63571937    -0.80700
C2338       C  0.86215640  0.77629865  0.64697004     0.79300
N2339       N  0.83303575  0.77290321  0.62959206    -0.79000
C2340       C  0.83347657  0.77524650  0.59382036     0.81700
N2341       N  0.86309000  0.78036705  0.57549810    -0.79000
C2342       C  0.89199386  0.78305284  0.59265867     0.81800
N2343       N  0.89085221  0.78042468  0.62829628    -0.80700
C2344       C  0.85147249  0.74353288  0.90967309     0.79300
N2345       N  0.87559043  0.73913288  0.92867777    -0.79000
C2346       C  0.87034207  0.73287744  0.96392621     0.81700
N2347       N  0.84248206  0.73240332  0.97965194    -0.79000
C2348       C  0.81998966  0.73896934  0.96171532     0.81800
N2349       N  0.82406204  0.74445096  0.92645240    -0.80700
C2350       C  0.68611301  0.59897096  0.91473151     0.79300
N2351       N  0.69451560  0.57635663  0.93107292    -0.79000
C2352       C  0.70119211  0.57961223  0.96620873     0.81700
N2353       N  0.69808637  0.60446129  0.98537527    -0.79000
C2354       C  0.68885411  0.62659200  0.96996392     0.81800
N2355       N  0.68424981  0.62500490  0.93423273    -0.80700
C2356       C  0.68863516  0.58976170  0.64859209     0.79300
N2357       N  0.68676461  0.56118134  0.63032518    -0.79000
C2358       C  0.69304665  0.56374058  0.59503169     0.81700
N2359       N  0.70332629  0.59574631  0.57861174    -0.79000
C2360       C  0.70606367  0.62463599  0.59675063     0.81800
N2361       N  0.69814235  0.62132345  0.63160445    -0.80700
O2362       O  0.71361068  0.80655266  0.01519264    -0.81100
O2363       O  0.72405117  0.68470839  0.99347314    -0.81100
O2364       O  0.78200975  0.76223887  0.97406396    -0.81100
O2365       O  0.63476017  0.68891274  0.02076936    -0.81100
O2366       O  0.78747995  0.72812768  0.01293385    -0.81200
O2367       O  0.66627310  0.74079173  0.99578323    -0.81100
O2368       O  0.67053027  0.65308008  0.01465788    -0.81100
O2369       O  0.74568143  0.79839979  0.97574969    -0.81100
C2370       C  0.73030000  0.81480473  0.98605776     1.08600
C2371       C  0.69334670  0.65693526  0.99181699     1.08500
C2372       C  0.79438444  0.74267480  0.98295462     1.08600
C2373       C  0.63712222  0.71087983  0.99801351     1.08500
O2374       O  0.65944710  0.76225516  0.56162785    -0.81100
O2375       O  0.76940810  0.74176308  0.58067979    -0.81200
O2376       O  0.76945427  0.82283161  0.54774504    -0.81100
O2377       O  0.70324944  0.67816272  0.58409345    -0.81100
O2378       O  0.74424729  0.67092250  0.55664775    -0.81100
O2379       O  0.72699931  0.78184985  0.58128773    -0.81100
O2380       O  0.66494631  0.71948882  0.58854250    -0.81100
O2381       O  0.80658290  0.78644688  0.54575225    -0.81100
Co2382     Co  0.69565942  0.75845683  0.53934876     1.51500
Co2383     Co  0.74236895  0.71083822  0.53839198     1.51700
Co2384     Co  0.77255618  0.78890511  0.51155242     1.51600
Co2385     Co  0.67538721  0.69152318  0.54904322     1.51500
O2386       O  0.72441496  0.74037354  0.52356230    -1.43000
C2387       C  0.64987020  0.73876818  0.58576333     1.08500
C2388       C  0.80111455  0.76860371  0.57386183     1.08600
C2389       C  0.75064814  0.81485118  0.57576389     1.08500
C2390       C  0.71828874  0.65925202  0.57838527     1.08500
O2391       O  0.50883716  0.78936421  0.58471538    -0.81100
O2392       O  0.93112234  0.69573055  0.59472622    -0.81100
O2393       O  0.92982898  0.78955242  0.54231090    -0.81100
O2394       O  0.00766728  0.71576580  0.57977425    -0.81100
O2395       O  0.92598463  0.75552791  0.58656838    -0.81200
O2396       O  0.55692880  0.76902524  0.56829437    -0.81100
O2397       O  0.93807142  0.65901790  0.56128875    -0.81100
O2398       O  0.00645985  0.82486082  0.54406231    -0.81100
C2399       C  0.51828364  0.82101864  0.57415804     1.08600
C2400       C  0.92395770  0.66387447  0.58834677     1.08500
C2401       C  0.91883285  0.77774035  0.57346034     1.08600
C2402       C  0.54172847  0.73968297  0.58543523     1.08500
O2403       O  0.52480597  0.73355051  0.00774946    -0.81100
O2404       O  0.88881007  0.72524318  0.01952048    -0.81200
O2405       O  0.00154927  0.78591316  0.97670777    -0.81100
O2406       O  0.94390016  0.68260256  0.99107922    -0.81100
O2407       O  0.89650375  0.66848168  0.02513166    -0.81100
O2408       O  0.54221089  0.80132053  0.01742633    -0.81100
O2409       O  0.99760053  0.67433946  0.02048270    -0.81100
O2410       O  0.92988928  0.75125024  0.97786154    -0.81100
Co2411     Co  0.51310240  0.75873269  0.54844250     1.51500
Co2412     Co  0.91323397  0.71284788  0.55670605     1.51700
Co2413     Co  0.96685999  0.78528614  0.51133118     1.51600
Co2414     Co  0.97581053  0.70197299  0.53324050     1.51500
O2415       O  0.96254939  0.74073568  0.53547481    -1.43000
C2416       C  0.52186925  0.70215862  0.00416665     1.08500
C2417       C  0.89744979  0.73458584  0.98750328     1.08600
C2418       C  0.53394702  0.80253660  0.98586552     1.08500
C2419       C  0.91005922  0.66368002  0.99713058     1.08500
O2420       O  0.69734642  0.89564301  0.55165006    -0.81100
O2421       O  0.71883599  0.52913731  0.57886365    -0.81100
O2422       O  0.77841427  0.52839919  0.58184666    -0.81100
O2423       O  0.63468648  0.94507532  0.54350629    -0.81100
O2424       O  0.78789121  0.57882577  0.55583812    -0.81200
O2425       O  0.67249707  0.93933704  0.57704522    -0.81100
O2426       O  0.67286381  0.52098134  0.54728270    -0.81100
O2427       O  0.73829346  0.94638454  0.57975362    -0.81100
C2428       C  0.72287422  0.91139376  0.57405904     1.08600
C2429       C  0.69303584  0.53426387  0.57456770     1.08500
C2430       C  0.79741240  0.56373556  0.57838144     1.08600
C2431       C  0.64066653  0.93251501  0.57096688     1.08500
O2432       O  0.65222635  0.90695351  0.00939386    -0.81100
O2433       O  0.77253265  0.54690418  0.98998181    -0.81200
O2434       O  0.76779931  0.95254663  0.01116856    -0.81100
O2435       O  0.69448147  0.52235148  0.97404829    -0.81100
O2436       O  0.72810121  0.56544965  0.01249068    -0.81100
O2437       O  0.71534771  0.93136379  0.98880178    -0.81100
O2438       O  0.65737685  0.94771197  0.97173165    -0.81100
O2439       O  0.80364797  0.52647568  0.01252212    -0.81100
Co2440     Co  0.69857463  0.93754104  0.53410491     1.51500
Co2441     Co  0.74707356  0.53630278  0.53529127     1.51700
Co2442     Co  0.76561772  0.98794453  0.54361182     1.51600
Co2443     Co  0.66856517  0.98409480  0.50959125     1.51500
O2444       O  0.71648221  0.98631992  0.52049643    -1.43000
C2445       C  0.64446932  0.91476208  0.98009354     1.08500
C2446       C  0.80070148  0.54608718  0.99027460     1.08600
C2447       C  0.74465182  0.93311645  0.98824992     1.08500
C2448       C  0.70945690  0.55515786  0.98427743     1.08500
C2449       C  0.68154113  0.59627502  0.87569077    -0.20800
C2450       C  0.66655836  0.56214152  0.85773650     0.35400
C2451       C  0.66642752  0.56097068  0.82067441    -0.26800
C2452       C  0.68114357  0.59306903  0.80096182     0.01800
C2453       C  0.69542351  0.62709904  0.81872430     0.26600
C2454       C  0.69499587  0.62828784  0.85589404    -0.25900
N2455       N  0.65149602  0.52871358  0.87718176    -0.83300
H2456       H  0.65490823  0.53482508  0.80699839     0.12400
C2457       C  0.68175758  0.59057928  0.76176521     0.01800
N2458       N  0.71127202  0.66038720  0.79896078    -0.81900
H2459       H  0.70676843  0.65450458  0.86946219     0.17300
C2460       C  0.66534185  0.60501575  0.74140269    -0.26700
C2461       C  0.66635564  0.60420194  0.70434572     0.35300
C2462       C  0.68365721  0.58803466  0.68729011    -0.20800
C2463       C  0.69891041  0.57241131  0.70760591    -0.26000
C2464       C  0.69872290  0.57407712  0.74465163     0.26700
H2465       H  0.65184620  0.61715037  0.75454201     0.12400
N2466       N  0.64988836  0.61970048  0.68399857    -0.83300
H2467       H  0.71254150  0.56038316  0.69452825     0.17300
N2468       N  0.71663919  0.56007826  0.76494412    -0.81900
H2469       H  0.63858176  0.63074170  0.70055413     0.32900
H2470       H  0.62842987  0.59835900  0.66966947     0.37400
H2471       H  0.72755088  0.54864317  0.74842579     0.32900
H2472       H  0.73854152  0.58231979  0.77803146     0.29600
H2473       H  0.72066040  0.68305900  0.81588266     0.32900
H2474       H  0.73400077  0.66350956  0.78588110     0.29600
H2475       H  0.62891321  0.52519777  0.89087591     0.37400
H2476       H  0.64202779  0.50615993  0.86008526     0.32900
C2477       C  0.86192959  0.77261510  0.68576021    -0.20800
C2478       C  0.84979748  0.79020026  0.70856189     0.35400
C2479       C  0.85061186  0.78613317  0.74525481    -0.26800
C2480       C  0.86319261  0.76481451  0.75939624     0.01800
C2481       C  0.87523038  0.74716008  0.73674357     0.26600
C2482       C  0.87487960  0.75158658  0.70012953    -0.25900
N2483       N  0.83714825  0.81240941  0.69443156    -0.83300
H2484       H  0.84114091  0.79936052  0.76294723     0.12400
C2485       C  0.86138183  0.75927875  0.79790655     0.01800
N2486       N  0.88670616  0.72399859  0.75100588    -0.81900
H2487       H  0.88406259  0.73793803  0.68265128     0.17300
C2488       C  0.82957714  0.72997007  0.81214799    -0.26700
C2489       C  0.82609068  0.72409033  0.84865946     0.35300
C2490       C  0.85513280  0.74791403  0.87116135    -0.20800
C2491       C  0.88729151  0.77680667  0.85687044    -0.26000
C2492       C  0.89057256  0.78300700  0.82031795     0.26700
H2493       H  0.80734832  0.71183232  0.79467263     0.12400
N2494       N  0.79327794  0.69398133  0.86302513    -0.83300
H2495       H  0.90942311  0.79509778  0.87436242     0.17300
N2496       N  0.92289400  0.81375275  0.80597993    -0.81900
H2497       H  0.77474226  0.67899027  0.84286968     0.32900
H2498       H  0.79981859  0.67624753  0.87466720     0.37400
H2499       H  0.94143867  0.82891422  0.82609926     0.32900
H2500       H  0.93525740  0.80354800  0.78981024     0.29600
H2501       H  0.89388943  0.71224318  0.73073212     0.32900
H2502       H  0.91014736  0.74047127  0.76592027     0.29600
H2503       H  0.85905577  0.83463311  0.68190808     0.37400
H2504       H  0.82917310  0.82335095  0.71475900     0.32900
C2505       C  0.86622828  0.60266971  0.88090473    -0.20800
C2506       C  0.85095365  0.56940352  0.86143952     0.35400
C2507       C  0.85055957  0.57015767  0.82454453    -0.26800
C2508       C  0.86552682  0.60332457  0.80682817     0.01800
C2509       C  0.88184239  0.63665959  0.82587519     0.26600
C2510       C  0.88212344  0.63603952  0.86288935    -0.25900
N2511       N  0.83608516  0.53500959  0.87913939    -0.83300
H2512       H  0.83848143  0.54476983  0.80942956     0.12400
C2513       C  0.86364118  0.60242585  0.76812848     0.01800
N2514       N  0.89709057  0.67075794  0.80755609    -0.81900
H2515       H  0.89380807  0.66157930  0.87767315     0.17300
C2516       C  0.83364710  0.60014769  0.75169219    -0.26700
C2517       C  0.83058434  0.59857561  0.71477574     0.35300
C2518       C  0.85841830  0.59970697  0.69426117    -0.20800
C2519       C  0.88816864  0.60151888  0.71096484    -0.26000
C2520       C  0.89093961  0.60264915  0.74781526     0.26700
H2521       H  0.81268432  0.59969128  0.76776828     0.12400
N2522       N  0.80039412  0.59772999  0.69818361    -0.83300
H2523       H  0.90946849  0.60237690  0.69513309     0.17300
N2524       N  0.92113514  0.60378685  0.76475428    -0.81900
H2525       H  0.78419215  0.60029602  0.71706466     0.32900
H2526       H  0.78416615  0.57182688  0.68654708     0.37400
H2527       H  0.93870112  0.60346044  0.74596260     0.32900
H2528       H  0.93589311  0.62875251  0.77837881     0.29600
H2529       H  0.90741789  0.69275143  0.82549552     0.32900
H2530       H  0.91912840  0.67432777  0.79284665     0.29600
H2531       H  0.85741757  0.53527311  0.89212869     0.37400
H2532       H  0.82553391  0.51322885  0.86093880     0.32900
C2533       C  0.58017964  0.71624543  0.88829004    -0.20800
C2534       C  0.55923494  0.72780694  0.87053988     0.35400
C2535       C  0.56245396  0.73241399  0.83370774    -0.26800
C2536       C  0.58507466  0.72462177  0.81389665     0.01800
C2537       C  0.60616513  0.71343743  0.83151497     0.26600
C2538       C  0.60379211  0.70981089  0.86833902    -0.25900
N2539       N  0.53514704  0.73535544  0.88968066    -0.83300
H2540       H  0.54679115  0.74168317  0.82023137     0.12400
C2541       C  0.58583303  0.72731416  0.77468249     0.01800
N2542       N  0.62950035  0.70516255  0.81188448    -0.81900
H2543       H  0.61999448  0.70095704  0.88139099     0.17300
C2544       C  0.61922588  0.74859249  0.75744578    -0.26700
C2545       C  0.62138677  0.75004422  0.72042500     0.35300
C2546       C  0.58933845  0.72979348  0.70008446    -0.20800
C2547       C  0.55579986  0.70982052  0.71733967    -0.26000
C2548       C  0.55369097  0.70807076  0.75435177     0.26700
H2549       H  0.64376653  0.76416864  0.77302891     0.12400
N2550       N  0.65590167  0.77249256  0.70352551    -0.83300
H2551       H  0.53114102  0.69470148  0.70182469     0.17300
N2552       N  0.51907833  0.68637599  0.77128697    -0.81900
H2553       H  0.67675512  0.78529700  0.72232316     0.31100
H2554       H  0.65521184  0.79337969  0.69055219     0.37400
H2555       H  0.49818136  0.67445854  0.75262376     0.32900
H2556       H  0.51896088  0.66485650  0.78403069     0.29600
H2557       H  0.64349291  0.69773246  0.82877265     0.32900
H2558       H  0.61304021  0.68230616  0.79581767     0.29600
H2559       H  0.51277955  0.71017546  0.89727685     0.37400
H2560       H  0.02714253  0.74928579  0.87348860     0.32900
C2561       C  0.58669127  0.85042382  0.86844791    -0.20800
C2562       C  0.55433228  0.83683297  0.84887797     0.35400
C2563       C  0.55595618  0.83784032  0.81187505    -0.26800
C2564       C  0.58912055  0.85180553  0.79424795     0.01800
C2565       C  0.62101482  0.86331407  0.81371074     0.26600
C2566       C  0.61958468  0.86292858  0.85066266    -0.25900
N2567       N  0.52025149  0.82333481  0.86653610    -0.83300
H2568       H  0.53148148  0.82891861  0.79670457     0.12400
C2569       C  0.59035150  0.85650937  0.75558569     0.01800
N2570       N  0.65467449  0.87547913  0.79578547    -0.81900
H2571       H  0.64426957  0.87243484  0.86568507     0.17300
C2572       C  0.61076316  0.89194456  0.74189703    -0.26700
C2573       C  0.61009949  0.89815698  0.70572305     0.35300
C2574       C  0.58870633  0.86810560  0.68277663    -0.20800
C2575       C  0.56921153  0.83249289  0.69651289    -0.26000
C2576       C  0.56994924  0.82641030  0.73268573     0.26700
H2577       H  0.62628129  0.91498435  0.75976294     0.12400
N2578       N  0.63001827  0.93490701  0.69255287    -0.83300
H2579       H  0.55323325  0.80927811  0.67897017     0.17300
N2580       N  0.54999667  0.78988874  0.74636313    -0.81900
H2581       H  0.64472099  0.95369605  0.71285683     0.32900
H2582       H  0.61116697  0.94115826  0.68361051     0.37400
H2583       H  0.53654133  0.77074863  0.72606455     0.32900
H2584       H  0.56886928  0.78440449  0.75698480     0.29600
H2585       H  0.67564043  0.88318530  0.81395578     0.32900
H2586       H  0.65181779  0.85308660  0.78150252     0.29600
H2587       H  0.52164291  0.84535039  0.88016931     0.37400
H2588       H  0.99913094  0.81227972  0.84841706     0.32900
C2589       C  0.73957486  0.86915420  0.68742842    -0.20800
C2590       C  0.72497506  0.88748138  0.70580938     0.35400
C2591       C  0.72631620  0.88937963  0.74261274    -0.26800
C2592       C  0.74052466  0.87218170  0.76170859     0.01800
C2593       C  0.75417935  0.85301002  0.74391395     0.26600
C2594       C  0.75373573  0.85180033  0.70689826    -0.25900
N2595       N  0.70796520  0.90355037  0.68753435    -0.83300
H2596       H  0.71567986  0.90397900  0.75639130     0.12400
C2597       C  0.73985455  0.87354738  0.80047575     0.01800
N2598       N  0.76861341  0.83509520  0.76356968    -0.81900
H2599       H  0.76483143  0.83752479  0.69331188     0.17300
C2600       C  0.71699696  0.84120510  0.81863758    -0.26700
C2601       C  0.71544434  0.84117927  0.85554258     0.35300
C2602       C  0.73779015  0.87426740  0.87450949    -0.20800
C2603       C  0.75985662  0.90685048  0.85610679    -0.26000
C2604       C  0.76123716  0.90676901  0.81915489     0.26700
H2605       H  0.70012263  0.81598881  0.80385241     0.12400
N2606       N  0.69095970  0.80784350  0.87368439    -0.83300
H2607       H  0.77688044  0.93223387  0.87060067     0.17300
N2608       N  0.78460433  0.94004636  0.80047255    -0.81900
H2609       H  0.67684969  0.78609826  0.85577927     0.32900
H2610       H  0.67153912  0.81149507  0.88627709     0.37400
H2611       H  0.79846989  0.96212335  0.81812986     0.32900
H2612       H  0.80427390  0.93704723  0.78763598     0.29600
H2613       H  0.77711252  0.82175731  0.74658876     0.32900
H2614       H  0.79174676  0.85541602  0.77699233     0.29600
H2615       H  0.72154923  0.93141224  0.69431034     0.37400
H2616       H  0.68120622  0.89123623  0.69634913     0.32900
loop_ 
_geom_bond_atom_site_label_1 
_geom_bond_atom_site_label_2 
_geom_bond_distance 
_geom_bond_site_symmetry_2 
_ccdc_geom_bond_type 
C1            N2   1.359       .  A
C1            N6   1.366       .  A
C1          C300   1.487       .  S
N2            C3   1.350       .  A
C3            N4   1.361       .  A
C3          C139   1.471       .  S
N4            C5   1.363       .  A
C5            N6   1.359       .  A
C5          C100   1.479       .  S
C7            N8   1.362       .  A
C7           N12   1.357       .  A
C7          C313   1.473       .  S
N8            C9   1.357       .  A
C9           N10   1.351       .  A
C9          C158   1.448       .  S
N10          C11   1.350       .  A
C11          N12   1.351       .  A
C11          C81   1.447       .  S
C13          N14   1.367       .  A
C13          N18   1.367       .  A
C13         C272   1.475       .  S
N14          C15   1.356       .  A
C15          N16   1.337       .  A
C15         C156   1.441       .  S
N16          C17   1.336       .  A
C17          N18   1.358       .  A
C17         C129   1.444       .  S
C19          N20   1.362       .  A
C19          N24   1.359       .  A
C19         C285   1.485       .  S
N20          C21   1.358       .  A
C21          N22   1.372       .  A
C21         C142   1.487       .  S
N22          C23   1.367       .  A
C23          N24   1.356       .  A
C23         C110   1.488       .  S
C25          N26   1.370       .  A
C25          N30   1.371       .  A
C25         C257   1.485       .  S
N26          C27   1.358       .  A
C27          N28   1.342       .  A
C27         C113   1.457       .  S
N28          C29   1.345       .  A
C29          N30   1.358       .  A
C29          C98   1.460       .  S
C31          N32   1.363       .  A
C31          N36   1.363       .  A
C31         C244   1.495       .  S
N32          C33   1.360       .  A
C33          N34   1.355       .  A
C33         C127   1.466       .  S
N34          C35   1.357       .  A
C35          N36   1.358       .  A
C35          C84   1.463       .  S
C37          N38   1.367       .  A
C37          N42   1.362       .  A
C37         C216   1.477       .  S
N38          C39   1.359       .  A
C39          N40   1.350       .  A
C39         C130   1.460       .  S
N40          C41   1.346       .  A
C41          N42   1.350       .  A
C41         C157   1.449       .  S
C43          N44   1.359       .  A
C43          N48   1.360       .  A
C43         C229   1.469       .  S
N44          C45   1.353       .  A
C45          N46   1.359       .  A
C45         C111   1.464       .  S
N46          C47   1.359       .  A
C47          N48   1.356       .  A
C47         C141   1.467       .  S
C49          N50   1.361       .  A
C49          N54   1.359       .  A
C49         C188   1.478       .  S
N50          C51   1.358       .  A
C51          N52   1.372       .  A
C51          C99   1.482       .  S
N52          C53   1.365       .  A
C53          N54   1.357       .  A
C53         C112   1.488       .  S
C55          N56   1.368       .  A
C55          N60   1.363       .  A
C55         C201   1.475       .  S
N56          C57   1.363       .  A
C57          N58   1.336       .  A
C57         C128   1.452       .  S
N58          C59   1.339       .  A
C59          N60   1.353       .  A
C59          C83   1.440       .  S
C61          N62   1.361       .  A
C61          N66   1.370       .  A
C61         C160   1.491       .  S
N62          C63   1.354       .  A
C63          N64   1.346       .  A
C63         C159   1.455       .  S
N64          C65   1.350       .  A
C65          N66   1.367       .  A
C65          C82   1.458       .  S
C67          N68   1.367       .  A
C67          N72   1.362       .  A
C67         C173   1.481       .  S
N68          C69   1.361       .  A
C69          N70   1.361       .  A
C69         C140   1.479       .  S
N70          C71   1.360       .  A
C71          N72   1.354       .  A
C71         C101   1.474       .  S
O73          C81   1.265       .  A
O73        Co420   2.002       .  S
O74          C82   1.235       .  A
O74        Co421   1.953       .  S
O75          C83   1.261       .  A
O75        Co422   1.989       .  S
O76          C84   1.251       .  A
O76        Co423   2.004       .  S
O77          C83   1.262       .  A
O77        Co421   1.958       .  S
O78          C84   1.243       .  A
O78        Co420   1.971       .  S
O79          C82   1.257       .  A
O79        Co423   2.020       .  S
O80          C81   1.257       .  A
O80        Co422   1.969       .  S
O85          C98   1.268       .  A
O85         Co93   1.858       .  S
O86          C99   1.273       .  A
O86         Co94   2.003       .  S
O87         C100   1.273       .  A
O87         Co95   2.043       .  S
O88         C101   1.299       .  A
O88         Co96   2.082       .  S
O89         C101   1.267       .  A
O89         Co94   1.897       .  S
O90         C100   1.258       .  A
O90         Co93   1.981       .  S
O91          C98   1.303       .  A
O91         Co96   2.101       .  S
O92          C99   1.268       .  A
O92         Co95   2.013       .  S
Co93        O400   2.003       .  S
Co93        O405   1.970   1_554  S
Co93         O97   1.877       .  S
Co94        O401   1.953   1_554  S
Co94        O404   1.957       .  S
Co94         O97   1.896       .  S
Co95        O402   1.993   1_554  S
Co95        O407   1.969   1_554  S
Co95         O97   2.083       .  S
Co96        O403   2.004       .  S
Co96        O406   2.021       .  S
Co96         O97   2.279       .  S
O102        C110   1.266       .  A
O102       Co122   1.966       .  S
O103        C111   1.253       .  A
O103       Co123   1.966       .  S
O104        C112   1.280       .  A
O104       Co124   2.070       .  S
O105       C1421   1.296       .  A
O105       Co125   2.122       .  S
O106        C112   1.258       .  A
O106       Co123   1.959       .  S
O107        C113   1.261       .  A
O107       Co122   1.870       .  S
O108        C111   1.262       .  A
O108       Co125   2.016       .  S
O109       C1418   1.283       .  A
O109       Co124   2.068       .  S
C110       O1417   1.283       .  A
C113       O1413   1.296       .  A
O114        C127   1.291       .  A
O114       Co449   2.103       .  S
O115        C128   1.276       .  A
O115       Co450   2.011       .  S
O116       C1437   1.250       .  A
O116       Co451   1.980       .  S
O117        C130   1.270       .  A
O117       Co452   1.981       .  S
O118        C130   1.278       .  A
O118       Co450   2.012       .  S
O119        C129   1.260       .  A
O119       Co449   1.976       .  S
O120       C1435   1.268       .  A
O120       Co452   1.911       .  S
O121        C128   1.251       .  A
O121       Co451   1.957       .  S
Co122       O441   2.103       .  S
Co122       O446   1.976       .  S
Co122      O1434   1.960   1_455  S
Co123       O442   2.010       .  S
Co123       O445   2.015       .  S
Co123       O126   1.996       .  S
Co124       O443   1.979   1_554  S
Co124       O448   1.957   1_554  S
Co124       O126   2.052       .  S
Co125       O444   1.982   1_554  S
Co125       O447   1.912       .  S
Co125       O126   2.032       .  S
O126      Co1430   1.962       .  S
C127       O1428   1.268   1_455  A
C129       O1424   1.249       .  A
O131        C139   1.268       .  A
O131       Co151   1.902       .  S
O132        C140   1.260       .  A
O132       Co152   1.982       .  S
O133        C141   1.298       .  A
O133       Co807   2.070   1_545  S
O134        C142   1.269       .  A
O134       Co154   2.020       .  S
O135        C141   1.273       .  A
O135       Co152   1.906       .  S
O136        C142   1.272       .  A
O136       Co151   2.001       .  S
O137        C140   1.277       .  A
O137       Co808   2.047   1_545  S
O138        C139   1.299       .  A
O138       Co153   2.075       .  S
O143        C156   1.262       .  A
O143       Co478   1.962       .  S
O144        C157   1.240       .  A
O144       Co479   1.957       .  S
O145        C158   1.251       .  A
O145       Co480   2.011       .  S
O146        C159   1.256       .  A
O146      Co1135   1.970   1_545  S
O147        C159   1.269       .  A
O147       Co479   2.010       .  S
O148        C158   1.232       .  A
O148       Co478   1.950       .  S
O149        C156   1.262       .  A
O149       Co481   1.995       .  S
O150        C157   1.253       .  A
O150      Co1134   2.000   1_545  S
Co151       O470   1.963       .  S
Co151       O475   1.950   1_554  S
Co151       O155   1.892       .  S
Co152       O471   1.958   1_554  S
Co152       O474   2.009       .  S
Co152       O809   1.901   1_545  S
Co153       O787   2.073       .  S
Co153       O472   2.011       .  S
Co153      O1131   2.002       .  S
Co153       O155   2.274       .  S
Co154       O791   2.040       .  S
Co154      O1127   1.971   1_554  S
Co154       O476   1.995   1_554  S
Co154       O155   2.074       .  S
O155       Co806   1.906       .  S
C160        C161   1.417       .  A
C160        C165   1.405       .  A
C161        C162   1.406       .  A
C161        N166   1.438       .  S
C162        C163   1.401       .  A
C162        H167   1.084       .  S
C163        C168   1.492       .  S
C163        C164   1.414       .  A
C164        C165   1.411       .  A
C164        N169   1.438       .  S
C165        H170   1.083       .  S
N166        H186   1.046       .  S
N166        H187   1.045       .  S
C168        C171   1.403       .  A
C168        C175   1.414       .  A
N169        H184   1.045       .  S
N169        H185   1.046       .  S
C171        C172   1.406       .  A
C171        H176   1.084       .  S
C172        C173   1.413       .  A
C172        N177   1.438       .  S
C173        C174   1.403       .  A
C174        C175   1.408       .  A
C174        H178   1.084       .  S
C175        N179   1.438       .  S
N177        H180   1.046       .  S
N177        H181   1.045       .  S
N179        H182   1.044       .  S
N179        H183   1.047       .  S
C188        C189   1.412       .  A
C188        C193   1.405       .  A
C189        C190   1.407       .  A
C189        N194   1.438       .  S
C190        C191   1.402       .  A
C190        H195   1.084       .  S
C191        C196   1.477       .  S
C191        C192   1.408       .  A
C192        C193   1.404       .  A
C192        N197   1.438       .  S
C193        H198   1.084       .  S
N194        H214   1.045       .  S
N194        H215   1.046       .  S
C196        C199   1.399       .  A
C196        C203   1.411       .  A
N197        H212   1.047       .  S
N197        H213   1.043       .  S
C199        C200   1.403       .  A
C199        H204   1.084       .  S
C200        C201   1.412       .  A
C200        N205   1.438       .  S
C201        C202   1.403       .  A
C202        C203   1.408       .  A
C202        H206   1.084       .  S
C203        N207   1.438       .  S
N205        H208   1.044       .  S
N205        H209   1.045       .  S
N207        H210   1.045       .  S
N207        H211   1.045       .  S
C216        C217   1.416       .  A
C216        C221   1.405       .  A
C217        C218   1.400       .  A
C217        N222   1.438       .  S
C218        C219   1.396       .  A
C218        H223   1.084       .  S
C219        C224   1.469       .  S
C219        C220   1.407       .  A
C220        C221   1.404       .  A
C220        N225   1.438       .  S
C221        H226   1.084       .  S
N222        H242   1.045       .  S
N222        H243   1.046       .  S
C224        C227   1.400       .  A
C224        C231   1.406       .  A
N225        H240   1.046       .  S
N225        H241   1.045       .  S
C227        C228   1.404       .  A
C227        H232   1.084       .  S
C228        C229   1.413       .  A
C228        N233   1.438       .  S
C229        C230   1.403       .  A
C230        C231   1.401       .  A
C230        H234   1.084       .  S
C231        N235   1.438       .  S
N233        H236   1.046       .  S
N233        H237   1.045       .  S
N235        H238   1.046       .  S
N235        H239   1.045       .  S
C244        C245   1.419       .  A
C244        C249   1.408       .  A
C245        C246   1.409       .  A
C245        N250   1.438       .  S
C246        C247   1.403       .  A
C246        H251   1.084       .  S
C247        C252   1.490       .  S
C247        C248   1.411       .  A
C248        C249   1.405       .  A
C248        N253   1.439       .  S
C249        H254   1.083       .  S
N250        H270   1.046       .  S
N250       H1579   1.045       .  S
C252        C255   1.404       .  A
C252        C259   1.413       .  A
N253        H268   1.045       .  S
N253        H269   1.046       .  S
C255        C256   1.407       .  A
C255        H260   1.083       .  S
C256        C257   1.415       .  A
C256        N261   1.438       .  S
C257        C258   1.404       .  A
C258        C259   1.407       .  A
C258        H262   1.084       .  S
C259        N263   1.438       .  S
N261        H264   1.048       .  S
N261        H265   1.043       .  S
N263        H266   1.044   1_455  S
N263        H267   1.046       .  S
H271       N1558   1.045       .  S
C272        C273   1.411       .  A
C272        C277   1.405       .  A
C273        C274   1.404       .  A
C273        N278   1.438       .  S
C274        C275   1.403       .  A
C274        H279   1.084       .  S
C275        C280   1.480       .  S
C275        C276   1.408       .  A
C276        C277   1.404       .  A
C276        N281   1.437       .  S
C277        H282   1.084       .  S
N278        H298   1.045       .  S
N278       H1607   1.046       .  S
C280        C283   1.402       .  A
C280        C287   1.406       .  A
N281        H296   1.045       .  S
N281        H297   1.046       .  S
C283        C284   1.405       .  A
C283        H288   1.084       .  S
C284        C285   1.415       .  A
C284        N289   1.438       .  S
C285        C286   1.408       .  A
C286        C287   1.404       .  A
C286        H290   1.084       .  S
C287        N291   1.437       .  S
N289        H292   1.047       .  S
N289        H293   1.045       .  S
N291        H294   1.044       .  S
N291        H295   1.047       .  S
H299       N1586   1.046       .  S
C300        C301   1.419       .  A
C300        C305   1.408       .  A
C301        C302   1.396       .  A
C301        N306   1.433       .  S
C302        C303   1.397       .  A
C302        H307   1.084       .  S
C303        C308   1.473       .  S
C303        C304   1.408       .  A
C304        C305   1.404       .  A
C304        N309   1.438       .  S
C305        H310   1.083       .  S
N306        H326   1.047       .  S
N306        H327   1.045       .  S
C308        C311   1.400       .  A
C308        C315   1.409       .  A
N309        H324   1.044       .  S
N309        H325   1.047       .  S
C311        C312   1.401       .  A
C311        H316   1.084       .  S
C312        C313   1.415       .  A
C312        N317   1.439       .  S
C313        C314   1.402       .  A
C314        C315   1.400       .  A
C314        H318   1.084       .  S
C315        N319   1.438       .  S
N317        H320   1.045       .  S
N317        H321   1.046       .  S
N319        H322   1.046       .  S
N319        H323   1.044       .  S
C328        N329   1.359       .  A
C328        N333   1.365       .  A
C328        C627   1.484       .  S
N329        C330   1.350       .  A
C330        N331   1.361       .  A
C330        C466   1.471       .  S
N331        C332   1.363       .  A
C332        N333   1.358       .  A
C332        C427   1.477       .  S
C334        N335   1.362       .  A
C334        N339   1.357       .  A
C334        C640   1.475       .  S
N335        C336   1.357       .  A
C336        N337   1.352       .  A
C336        C485   1.448       .  S
N337        C338   1.350       .  A
C338        N339   1.351       .  A
C338        C408   1.448       .  S
C340        N341   1.367       .  A
C340        N345   1.367       .  A
C340        C599   1.477       .  S
N341        C342   1.356       .  A
C342        N343   1.337       .  A
C342        C483   1.442       .  S
N343        C344   1.336       .  A
C344        N345   1.358       .  A
C344        C456   1.444       .  S
C346        N347   1.361       .  A
C346        N351   1.359       .  A
C346        C612   1.483       .  S
N347        C348   1.358       .  A
C348        N349   1.372       .  A
C348        C469   1.487       .  S
N349        C350   1.368       .  A
C350        N351   1.356       .  A
C350        C437   1.489       .  S
C352        N353   1.370       .  A
C352        N357   1.370       .  A
C352        C584   1.484       .  S
N353        C354   1.358       .  A
C354        N355   1.342       .  A
C354        C440   1.457       .  S
N355        C356   1.345       .  A
C356        N357   1.358       .  A
C356        C425   1.458       .  S
C358        N359   1.363       .  A
C358        N363   1.363       .  A
C358        C571   1.494       .  S
N359        C360   1.359       .  A
C360        N361   1.355       .  A
C360        C454   1.465   1_556  S
N361        C362   1.357       .  A
C362        N363   1.357       .  A
C362        C411   1.462       .  S
C364        N365   1.367       .  A
C364        N369   1.362       .  A
C364        C543   1.479       .  S
N365        C366   1.360       .  A
C366        N367   1.351       .  A
C366        C457   1.462       .  S
N367        C368   1.347       .  A
C368        N369   1.351       .  A
C368        C484   1.450       .  S
C370        N371   1.360       .  A
C370        N375   1.361       .  A
C370        C556   1.473       .  S
N371        C372   1.354       .  A
C372        N373   1.359       .  A
C372        C438   1.464       .  S
N373        C374   1.359       .  A
C374        N375   1.357       .  A
C374        C468   1.469       .  S
C376        N377   1.362       .  A
C376        N381   1.359       .  A
C376        C515   1.478       .  S
N377        C378   1.359       .  A
C378        N379   1.372       .  A
C378        C426   1.483       .  S
N379        C380   1.365       .  A
C380        N381   1.357       .  A
C380        C439   1.488       .  S
C382        N383   1.367       .  A
C382        N387   1.364       .  A
C382        C528   1.474       .  S
N383        C384   1.362       .  A
C384        N385   1.336       .  A
C384        C455   1.451       .  S
N385        C386   1.340       .  A
C386        N387   1.355       .  A
C386        C410   1.442       .  S
C388        N389   1.361       .  A
C388        N393   1.370       .  A
C388        C487   1.489       .  S
N389        C390   1.354       .  A
C390        N391   1.346       .  A
C390        C486   1.454       .  S
N391        C392   1.350       .  A
C392        N393   1.366       .  A
C392        C409   1.458       .  S
C394        N395   1.367       .  A
C394        N399   1.363       .  A
C394        C500   1.482       .  S
N395        C396   1.361       .  A
C396        N397   1.361       .  A
C396        C467   1.478       .  S
N397        C398   1.360       .  A
C398        N399   1.355       .  A
C398        C428   1.475       .  S
O400        C408   1.265   1_554  A
O401        C409   1.235       .  A
O402        C410   1.262       .  A
O403        C411   1.251   1_554  A
O404        C410   1.262   1_554  A
O405        C411   1.243       .  A
O406        C409   1.257   1_554  A
O407        C408   1.257       .  A
O412        C425   1.267       .  A
O412       Co420   1.857       .  S
O413        C426   1.273       .  A
O413       Co421   2.003       .  S
O414        C427   1.272       .  A
O414       Co422   2.040       .  S
O415        C428   1.299       .  A
O415       Co423   2.083       .  S
O416        C428   1.268       .  A
O416       Co421   1.898       .  S
O417        C427   1.258       .  A
O417       Co420   1.980       .  S
O418        C425   1.303       .  A
O418       Co423   2.100       .  S
O419        C426   1.268       .  A
O419       Co422   2.013       .  S
Co420       O424   1.876       .  S
Co421       O424   1.897       .  S
Co422       O424   2.083       .  S
Co423       O424   2.278       .  S
O429        C437   1.266       .  A
O429       Co449   1.966       .  S
O430        C438   1.253       .  A
O430       Co450   1.967       .  S
O431        C439   1.280       .  A
O431       Co451   2.072       .  S
O432       C1748   1.296       .  A
O432       Co452   2.120       .  S
O433        C439   1.257       .  A
O433       Co450   1.957       .  S
O434        C440   1.260       .  A
O434       Co449   1.870       .  S
O435        C438   1.262       .  A
O435       Co452   2.016       .  S
O436       C1745   1.283       .  A
O436       Co451   2.066       .  S
C437       O1744   1.283       .  A
C440       O1740   1.296       .  A
O441        C454   1.291       .  A
O442        C455   1.275   1_554  A
O443       C1764   1.249       .  A
O444        C457   1.270       .  A
O445        C457   1.278   1_554  A
O446        C456   1.260   1_554  A
O447       C1762   1.268       .  A
O448        C455   1.251       .  A
Co449      O1761   1.961   1_455  S
Co450       O453   1.994       .  S
Co451       O453   2.053       .  S
Co452       O453   2.032       .  S
O453      Co1757   1.961       .  S
C454       O1755   1.268   1_455  A
C456       O1751   1.249       .  A
O458        C466   1.268       .  A
O458       Co478   1.903       .  S
O459        C467   1.260       .  A
O459       Co479   1.982       .  S
O460        C468   1.298       .  A
O460      Co1134   2.070   1_545  S
O461        C469   1.269       .  A
O461       Co481   2.020       .  S
O462        C468   1.273       .  A
O462       Co479   1.907       .  S
O463        C469   1.272       .  A
O463       Co478   2.001       .  S
O464        C467   1.276       .  A
O464      Co1135   2.046   1_545  S
O465        C466   1.299       .  A
O465       Co480   2.075       .  S
O470        C483   1.263   1_554  A
O471        C484   1.240       .  A
O472        C485   1.251   1_554  A
O473        C486   1.256       .  A
O473       Co808   1.969   1_546  S
O474        C486   1.269   1_554  A
O475        C485   1.232       .  A
O476        C483   1.262       .  A
O477        C484   1.253   1_554  A
O477       Co807   2.002   1_545  S
Co478       O482   1.890       .  S
Co479      O1136   1.901   1_545  S
Co480      O1114   2.071       .  S
Co480       O804   2.002       .  S
Co480       O482   2.273       .  S
Co481      O1118   2.040       .  S
Co481       O800   1.972       .  S
Co481       O482   2.073       .  S
O482      Co1133   1.905       .  S
C487        C488   1.417       .  A
C487        C492   1.405       .  A
C488        C489   1.406       .  A
C488        N493   1.438       .  S
C489        C490   1.401       .  A
C489        H494   1.084       .  S
C490        C495   1.491       .  S
C490        C491   1.413       .  A
C491        C492   1.410       .  A
C491        N496   1.438       .  S
C492        H497   1.083       .  S
N493        H513   1.046       .  S
N493        H514   1.045       .  S
C495        C498   1.403       .  A
C495        C502   1.414       .  A
N496        H511   1.045       .  S
N496        H512   1.046       .  S
C498        C499   1.406       .  A
C498        H503   1.084       .  S
C499        C500   1.413       .  A
C499        N504   1.438       .  S
C500        C501   1.404       .  A
C501        C502   1.408       .  A
C501        H505   1.084       .  S
C502        N506   1.438       .  S
N504        H507   1.046       .  S
N504        H508   1.045       .  S
N506        H509   1.045       .  S
N506        H510   1.047       .  S
C515        C516   1.411       .  A
C515        C520   1.405       .  A
C516        C517   1.407       .  A
C516        N521   1.438       .  S
C517        C518   1.402       .  A
C517        H522   1.084       .  S
C518        C523   1.478       .  S
C518        C519   1.408       .  A
C519        C520   1.405       .  A
C519        N524   1.438       .  S
C520        H525   1.084       .  S
N521        H541   1.045       .  S
N521        H542   1.046       .  S
C523        C526   1.400       .  A
C523        C530   1.410       .  A
N524        H539   1.047       .  S
N524        H540   1.044       .  S
C526        C527   1.404       .  A
C526        H531   1.084       .  S
C527        C528   1.411       .  A
C527        N532   1.438       .  S
C528        C529   1.403       .  A
C529        C530   1.408       .  A
C529        H533   1.084       .  S
C530        N534   1.438       .  S
N532        H535   1.044       .  S
N532        H536   1.045       .  S
N534        H537   1.045       .  S
N534        H538   1.046       .  S
C543        C544   1.416       .  A
C543        C548   1.406       .  A
C544        C545   1.401       .  A
C544        N549   1.438       .  S
C545        C546   1.397       .  A
C545        H550   1.084       .  S
C546        C551   1.471       .  S
C546        C547   1.408       .  A
C547        C548   1.405       .  A
C547        N552   1.438       .  S
C548        H553   1.084       .  S
N549        H569   1.045       .  S
N549        H570   1.046       .  S
C551        C554   1.400       .  A
C551        C558   1.406       .  A
N552        H567   1.046       .  S
N552        H568   1.045       .  S
C554        C555   1.405       .  A
C554        H559   1.084       .  S
C555        C556   1.413       .  A
C555        N560   1.438       .  S
C556        C557   1.404       .  A
C557        C558   1.402       .  A
C557        H561   1.084       .  S
C558        N562   1.438       .  S
N560        H563   1.046       .  S
N560        H564   1.045       .  S
N562        H565   1.046       .  S
N562        H566   1.045       .  S
C571        C572   1.419       .  A
C571        C576   1.408       .  A
C572        C573   1.408       .  A
C572        N577   1.438       .  S
C573        C574   1.403       .  A
C573        H578   1.084       .  S
C574        C579   1.489       .  S
C574        C575   1.410       .  A
C575        C576   1.405       .  A
C575        N580   1.439       .  S
C576        H581   1.083       .  S
N577        H597   1.046       .  S
N577       H1906   1.045       .  S
C579        C582   1.404       .  A
C579        C586   1.413       .  A
N580        H595   1.045       .  S
N580        H596   1.046       .  S
C582        C583   1.406       .  A
C582        H587   1.084       .  S
C583        C584   1.415       .  A
C583        N588   1.438       .  S
C584        C585   1.404       .  A
C585        C586   1.406       .  A
C585        H589   1.084       .  S
C586        N590   1.438       .  S
N588        H591   1.048       .  S
N588        H592   1.043       .  S
N590        H593   1.045   1_455  S
N590        H594   1.046       .  S
H598       N1885   1.045       .  S
C599        C600   1.412       .  A
C599        C604   1.405       .  A
C600        C601   1.405       .  A
C600        N605   1.438       .  S
C601        C602   1.403       .  A
C601        H606   1.084       .  S
C602        C607   1.481       .  S
C602        C603   1.407       .  A
C603        C604   1.404       .  A
C603        N608   1.436       .  S
C604        H609   1.084       .  S
N605        H625   1.045       .  S
N605       H1934   1.046       .  S
C607        C610   1.402       .  A
C607        C614   1.406       .  A
N608        H623   1.045       .  S
N608        H624   1.046       .  S
C610        C611   1.405       .  A
C610        H615   1.084       .  S
C611        C612   1.414       .  A
C611        N616   1.438       .  S
C612        C613   1.408       .  A
C613        C614   1.404       .  A
C613        H617   1.084       .  S
C614        N618   1.437       .  S
N616        H619   1.047       .  S
N616        H620   1.045       .  S
N618        H621   1.043       .  S
N618        H622   1.047       .  S
H626       N1913   1.046       .  S
C627        C628   1.418       .  A
C627        C632   1.408       .  A
C628        C629   1.396       .  A
C628        N633   1.433       .  S
C629        C630   1.396       .  A
C629        H634   1.083       .  S
C630        C635   1.472       .  S
C630        C631   1.407       .  A
C631        C632   1.403       .  A
C631        N636   1.438       .  S
C632        H637   1.083       .  S
N633        H653   1.046       .  S
N633        H654   1.045       .  S
C635        C638   1.399       .  A
C635        C642   1.408       .  A
N636        H651   1.044       .  S
N636        H652   1.047       .  S
C638        C639   1.401       .  A
C638        H643   1.084       .  S
C639        C640   1.416       .  A
C639        N644   1.439       .  S
C640        C641   1.404       .  A
C641        C642   1.401       .  A
C641        H645   1.084       .  S
C642        N646   1.438       .  S
N644        H647   1.045       .  S
N644        H648   1.046       .  S
N646        H649   1.046       .  S
N646        H650   1.044       .  S
C655        N656   1.357       .  A
C655        N660   1.366       .  A
C655        C954   1.484       .  S
N656        C657   1.349       .  A
C657        N658   1.360       .  A
C657        C793   1.467       .  S
N658        C659   1.362       .  A
C659        N660   1.360       .  A
C659        C754   1.477       .  S
C661        N662   1.362       .  A
C661        N666   1.358       .  A
C661        C967   1.474       .  S
N662        C663   1.357       .  A
C663        N664   1.351       .  A
C663        C812   1.446       .  S
N664        C665   1.349       .  A
C665        N666   1.352       .  A
C665        C735   1.449       .  S
C667        N668   1.367       .  A
C667        N672   1.366       .  A
C667        C926   1.474       .  S
N668        C669   1.355       .  A
C669        N670   1.337       .  A
C669        C810   1.442       .  S
N670        C671   1.336       .  A
C671        N672   1.357       .  A
C671        C783   1.443       .  S
C673        N674   1.361       .  A
C673        N678   1.358       .  A
C673        C939   1.481       .  S
N674        C675   1.357       .  A
C675        N676   1.372       .  A
C675        C796   1.486       .  S
N676        C677   1.368       .  A
C677        N678   1.355       .  A
C677        C764   1.487       .  S
C679        N680   1.369       .  A
C679        N684   1.371       .  A
C679        C911   1.484       .  S
N680        C681   1.357       .  A
C681        N682   1.342       .  A
C681        C767   1.455       .  S
N682        C683   1.345       .  A
C683        N684   1.359       .  A
C683        C752   1.459       .  S
C685        N686   1.363       .  A
C685        N690   1.363       .  A
C685        C898   1.496       .  S
N686        C687   1.360       .  A
C687        N688   1.355       .  A
C687        C781   1.465       .  S
N688        C689   1.356       .  A
C689        N690   1.357       .  A
C689        C738   1.463       .  S
C691        N692   1.365       .  A
C691        N696   1.362       .  A
C691        C870   1.477       .  S
N692        C693   1.358       .  A
C693        N694   1.350       .  A
C693        C784   1.456       .  S
N694        C695   1.346       .  A
C695        N696   1.351       .  A
C695        C811   1.450       .  S
C697        N698   1.359       .  A
C697        N702   1.361       .  A
C697        C883   1.471       .  S
N698        C699   1.352       .  A
C699        N700   1.361       .  A
C699        C765   1.465       .  S
N700        C701   1.361       .  A
C701        N702   1.357       .  A
C701        C795   1.471       .  S
C703        N704   1.364       .  A
C703        N708   1.358       .  A
C703        C842   1.481       .  S
N704        C705   1.361       .  A
C705        N706   1.371       .  A
C705        C753   1.485       .  S
N706        C707   1.364       .  A
C707        N708   1.356       .  A
C707        C766   1.486       .  S
C709        N710   1.367       .  A
C709        N714   1.364       .  A
C709        C855   1.473       .  S
N710        C711   1.362       .  A
C711        N712   1.336       .  A
C711        C782   1.451       .  S
N712        C713   1.340       .  A
C713        N714   1.355       .  A
C713        C737   1.443       .  S
C715        N716   1.361       .  A
C715        N720   1.369       .  A
C715        C814   1.489       .  S
N716        C717   1.354       .  A
C717        N718   1.347       .  A
C717        C813   1.456       .  S
N718        C719   1.351       .  A
C719        N720   1.365       .  A
C719        C736   1.458       .  S
C721        N722   1.365       .  A
C721        N726   1.362       .  A
C721        C827   1.479       .  S
N722        C723   1.358       .  A
C723        N724   1.361       .  A
C723        C794   1.475       .  S
N724        C725   1.360       .  A
C725        N726   1.355       .  A
C725        C755   1.474       .  S
O727        C735   1.266       .  A
O727      Co1074   2.004       .  S
O728        C736   1.235       .  A
O728      Co1075   1.953       .  S
O729        C737   1.262       .  A
O729      Co1076   1.995       .  S
O730        C738   1.251       .  A
O730      Co1077   2.003       .  S
O731        C737   1.261       .  A
O731      Co1075   1.956       .  S
O732        C738   1.243       .  A
O732      Co1074   1.971       .  S
O733        C736   1.257       .  A
O733      Co1077   2.023       .  S
O734        C735   1.257       .  A
O734      Co1076   1.969       .  S
O739        C752   1.268       .  A
O739       Co747   1.860       .  S
O740        C753   1.273       .  A
O740       Co748   2.007       .  S
O741        C754   1.272       .  A
O741       Co749   2.043       .  S
O742        C755   1.298       .  A
O742       Co750   2.078       .  S
O743        C755   1.268       .  A
O743       Co748   1.900       .  S
O744        C754   1.256       .  A
O744       Co747   1.980       .  S
O745        C752   1.303       .  A
O745       Co750   2.098       .  S
O746        C753   1.268       .  A
O746       Co749   2.013       .  S
Co747      O1054   2.006       .  S
Co747      O1059   1.971   1_554  S
Co747       O751   1.876       .  S
Co748      O1055   1.954   1_554  S
Co748      O1058   1.955       .  S
Co748       O751   1.896       .  S
Co749      O1056   1.992   1_554  S
Co749      O1061   1.970   1_554  S
Co749       O751   2.083       .  S
Co750      O1057   2.002       .  S
Co750      O1060   2.023       .  S
Co750       O751   2.278       .  S
O756        C764   1.266       .  A
O756       Co776   1.965       .  S
O757        C765   1.253       .  A
O757       Co777   1.965       .  S
O758        C766   1.280       .  A
O758       Co778   2.070       .  S
O759       C2075   1.296       .  A
O759       Co779   2.122       .  S
O760        C766   1.257       .  A
O760       Co777   1.957       .  S
O761        C767   1.260       .  A
O761       Co776   1.868       .  S
O762        C765   1.263       .  A
O762       Co779   2.019       .  S
O763       C2072   1.282       .  A
O763       Co778   2.064       .  S
C764       O2071   1.283       .  A
C767       O2067   1.296       .  A
O768        C781   1.291       .  A
O768      Co1103   2.102       .  S
O769        C782   1.276       .  A
O769      Co1104   2.011       .  S
O770       C2091   1.249       .  A
O770      Co1105   1.979       .  S
O771        C784   1.270       .  A
O771      Co1106   1.979       .  S
O772        C784   1.277       .  A
O772      Co1104   2.009       .  S
O773        C783   1.260       .  A
O773      Co1103   1.976       .  S
O774       C2089   1.268       .  A
O774      Co1106   1.913       .  S
O775        C782   1.251       .  A
O775      Co1105   1.956       .  S
Co776      O1095   2.102       .  S
Co776      O1100   1.976       .  S
Co776      O2088   1.958   1_455  S
Co777      O1096   2.008       .  S
Co777      O1099   2.011       .  S
Co777       O780   1.993       .  S
Co778      O1097   1.978   1_554  S
Co778      O1102   1.955   1_554  S
Co778       O780   2.051       .  S
Co779      O1098   1.980   1_554  S
Co779      O1101   1.911       .  S
Co779       O780   2.029       .  S
O780      Co2084   1.957       .  S
C781       O2082   1.268   1_455  A
C783       O2078   1.249       .  A
O785        C793   1.268       .  A
O785       Co805   1.901       .  S
O786        C794   1.261       .  A
O786       Co806   1.981       .  S
O787        C795   1.299       .  A
O788        C796   1.268       .  A
O788       Co808   2.018       .  S
O789        C795   1.273       .  A
O789       Co806   1.908       .  S
O790        C796   1.272       .  A
O790       Co805   2.003       .  S
O791        C794   1.275       .  A
O792        C793   1.298       .  A
O792       Co807   2.071       .  S
O797        C810   1.262       .  A
O797      Co1132   1.960       .  S
O798        C811   1.240       .  A
O798      Co1133   1.957       .  S
O799        C812   1.250       .  A
O799      Co1134   2.006       .  S
O800        C813   1.257       .  A
O801        C813   1.269       .  A
O801      Co1133   2.011       .  S
O802        C812   1.233       .  A
O802      Co1132   1.951       .  S
O803        C810   1.262       .  A
O803      Co1135   1.997       .  S
O804        C811   1.254       .  A
Co805      O1124   1.961       .  S
Co805      O1129   1.950   1_554  S
Co805       O809   1.889       .  S
Co806      O1125   1.958   1_554  S
Co806      O1128   2.010       .  S
Co807      O1126   2.007       .  S
Co807       O809   2.274       .  S
Co808      O1130   1.997   1_554  S
Co808       O809   2.072       .  S
C814        C815   1.417       .  A
C814        C819   1.405       .  A
C815        C816   1.405       .  A
C815        N820   1.438       .  S
C816        C817   1.402       .  A
C816        H821   1.084       .  S
C817        C822   1.490       .  S
C817        C818   1.413       .  A
C818        C819   1.410       .  A
C818        N823   1.438       .  S
C819        H824   1.083       .  S
N820        H840   1.045       .  S
N820        H841   1.046       .  S
C822        C825   1.404       .  A
C822        C829   1.413       .  A
N823        H838   1.045       .  S
N823        H839   1.046       .  S
C825        C826   1.406       .  A
C825        H830   1.084       .  S
C826        C827   1.413       .  A
C826        N831   1.438       .  S
C827        C828   1.403       .  A
C828        C829   1.405       .  A
C828        H832   1.084       .  S
C829        N833   1.438       .  S
N831        H834   1.046       .  S
N831        H835   1.045       .  S
N833        H836   1.045       .  S
N833        H837   1.047       .  S
C842        C843   1.411       .  A
C842        C847   1.406       .  A
C843        C844   1.408       .  A
C843        N848   1.437       .  S
C844        C845   1.403       .  A
C844        H849   1.084       .  S
C845        C850   1.478       .  S
C845        C846   1.407       .  A
C846        C847   1.405       .  A
C846        N851   1.438       .  S
C847        H852   1.084       .  S
N848        H868   1.045       .  S
N848        H869   1.046       .  S
C850        C853   1.400       .  A
C850        C857   1.410       .  A
N851        H866   1.047       .  S
N851        H867   1.044       .  S
C853        C854   1.404       .  A
C853        H858   1.084       .  S
C854        C855   1.410       .  A
C854        N859   1.438       .  S
C855        C856   1.403       .  A
C856        C857   1.408       .  A
C856        H860   1.084       .  S
C857        N861   1.437       .  S
N859        H862   1.045       .  S
N859        H863   1.046       .  S
N861        H864   1.045       .  S
N861        H865   1.046       .  S
C870        C871   1.415       .  A
C870        C875   1.406       .  A
C871        C872   1.400       .  A
C871        N876   1.438       .  S
C872        C873   1.396       .  A
C872        H877   1.084       .  S
C873        C878   1.469       .  S
C873        C874   1.407       .  A
C874        C875   1.405       .  A
C874        N879   1.438       .  S
C875        H880   1.084       .  S
N876        H896   1.045       .  S
N876        H897   1.046       .  S
C878        C881   1.400       .  A
C878        C885   1.405       .  A
N879        H894   1.046       .  S
N879        H895   1.045       .  S
C881        C882   1.404       .  A
C881        H886   1.084       .  S
C882        C883   1.413       .  A
C882        N887   1.438       .  S
C883        C884   1.404       .  A
C884        C885   1.401       .  A
C884        H888   1.084       .  S
C885        N889   1.438       .  S
N887        H890   1.046       .  S
N887        H891   1.045       .  S
N889        H892   1.046       .  S
N889        H893   1.044       .  S
C898        C899   1.419       .  A
C898        C903   1.408       .  A
C899        C900   1.409       .  A
C899        N904   1.438       .  S
C900        C901   1.404       .  A
C900        H905   1.084       .  S
C901        C906   1.492       .  S
C901        C902   1.411       .  A
C902        C903   1.404       .  A
C902        N907   1.439       .  S
C903        H908   1.083       .  S
N904        H924   1.046       .  S
N904       H2233   1.045       .  S
C906        C909   1.405       .  A
C906        C913   1.413       .  A
N907        H922   1.045       .  S
N907        H923   1.046       .  S
C909        C910   1.406       .  A
C909        H914   1.083       .  S
C910        C911   1.414       .  A
C910        N915   1.438       .  S
C911        C912   1.404       .  A
C912        C913   1.406       .  A
C912        H916   1.084       .  S
C913        N917   1.438       .  S
N915        H918   1.048       .  S
N915        H919   1.043       .  S
N917        H920   1.044   1_455  S
N917        H921   1.047       .  S
H925       N2212   1.045       .  S
C926        C927   1.412       .  A
C926        C931   1.404       .  A
C927        C928   1.404       .  A
C927        N932   1.438       .  S
C928        C929   1.403       .  A
C928        H933   1.084       .  S
C929        C934   1.478       .  S
C929        C930   1.407       .  A
C930        C931   1.402       .  A
C930        N935   1.436       .  S
C931        H936   1.084       .  S
N932        H952   1.045       .  S
N932       H2261   1.046   1_455  S
C934        C937   1.402       .  A
C934        C941   1.406       .  A
N935        H950   1.045       .  S
N935        H951   1.046       .  S
C937        C938   1.404       .  A
C937        H942   1.084       .  S
C938        C939   1.413       .  A
C938        N943   1.438       .  S
C939        C940   1.408       .  A
C940        C941   1.403       .  A
C940        H944   1.084       .  S
C941        N945   1.437       .  S
N943        H946   1.047       .  S
N943        H947   1.045       .  S
N945        H948   1.044       .  S
N945        H949   1.047       .  S
H953       N2240   1.046       .  S
C954        C955   1.419       .  A
C954        C959   1.407       .  A
C955        C956   1.396       .  A
C955        N960   1.433       .  S
C956        C957   1.396       .  A
C956        H961   1.083       .  S
C957        C962   1.471       .  S
C957        C958   1.407       .  A
C958        C959   1.403       .  A
C958        N963   1.438       .  S
C959        H964   1.083       .  S
N960        H980   1.046       .  S
N960        H981   1.045       .  S
C962        C965   1.399       .  A
C962        C969   1.407       .  A
N963        H978   1.044       .  S
N963        H979   1.046       .  S
C965        C966   1.401       .  A
C965        H970   1.084       .  S
C966        C967   1.415       .  A
C966        N971   1.439       .  S
C967        C968   1.404       .  A
C968        C969   1.402       .  A
C968        H972   1.084       .  S
C969        N973   1.438       .  S
N971        H974   1.045       .  S
N971        H975   1.046       .  S
N973        H976   1.046       .  S
N973        H977   1.044       .  S
C982        N983   1.357       .  A
C982        N987   1.366       .  A
C982       C1281   1.485       .  S
N983        C984   1.348       .  A
C984        N985   1.361       .  A
C984       C1120   1.468       .  S
N985        C986   1.363       .  A
C986        N987   1.360       .  A
C986       C1081   1.479       .  S
C988        N989   1.361       .  A
C988        N993   1.359       .  A
C988       C1294   1.474       .  S
N989        C990   1.356       .  A
C990        N991   1.351       .  A
C990       C1139   1.445       .  S
N991        C992   1.349       .  A
C992        N993   1.353       .  A
C992       C1062   1.450       .  S
C994        N995   1.367       .  A
C994        N999   1.367       .  A
C994       C1253   1.476       .  S
N995        C996   1.356       .  A
C996        N997   1.337       .  A
C996       C1137   1.443       .  S
N997        C998   1.336       .  A
C998        N999   1.357       .  A
C998       C1110   1.445       .  S
C1000      N1001   1.361       .  A
C1000      N1005   1.358       .  A
C1000      C1266   1.481       .  S
N1001      C1002   1.357       .  A
C1002      N1003   1.372       .  A
C1002      C1123   1.485       .  S
N1003      C1004   1.367       .  A
C1004      N1005   1.355       .  A
C1004      C1091   1.486       .  S
C1006      N1007   1.370       .  A
C1006      N1011   1.370       .  A
C1006      C1238   1.485       .  S
N1007      C1008   1.358       .  A
C1008      N1009   1.342       .  A
C1008      C1094   1.455       .  S
N1009      C1010   1.345       .  A
C1010      N1011   1.358       .  A
C1010      C1079   1.459       .  S
C1012      N1013   1.363       .  A
C1012      N1017   1.362       .  A
C1012      C1225   1.495       .  S
N1013      C1014   1.360       .  A
C1014      N1015   1.355       .  A
C1014      C1108   1.466   1_556  S
N1015      C1016   1.357       .  A
C1016      N1017   1.357       .  A
C1016      C1065   1.462       .  S
C1018      N1019   1.366       .  A
C1018      N1023   1.363       .  A
C1018      C1197   1.478       .  S
N1019      C1020   1.358       .  A
C1020      N1021   1.351       .  A
C1020      C1111   1.459       .  S
N1021      C1022   1.347       .  A
C1022      N1023   1.351       .  A
C1022      C1138   1.451       .  S
C1024      N1025   1.360       .  A
C1024      N1029   1.361       .  A
C1024      C1210   1.473       .  S
N1025      C1026   1.353       .  A
C1026      N1027   1.360       .  A
C1026      C1092   1.466       .  S
N1027      C1028   1.360       .  A
C1028      N1029   1.357       .  A
C1028      C1122   1.471       .  S
C1030      N1031   1.363       .  A
C1030      N1035   1.358       .  A
C1030      C1169   1.479       .  S
N1031      C1032   1.360       .  A
C1032      N1033   1.371       .  A
C1032      C1080   1.484       .  S
N1033      C1034   1.364       .  A
C1034      N1035   1.356       .  A
C1034      C1093   1.486       .  S
C1036      N1037   1.366       .  A
C1036      N1041   1.364       .  A
C1036      C1182   1.471       .  S
N1037      C1038   1.361       .  A
C1038      N1039   1.335       .  A
C1038      C1109   1.448       .  S
N1039      C1040   1.339       .  A
C1040      N1041   1.355       .  A
C1040      C1064   1.441       .  S
C1042      N1043   1.361       .  A
C1042      N1047   1.370       .  A
C1042      C1141   1.489       .  S
N1043      C1044   1.354       .  A
C1044      N1045   1.347       .  A
C1044      C1140   1.455       .  S
N1045      C1046   1.350       .  A
C1046      N1047   1.366       .  A
C1046      C1063   1.458       .  S
C1048      N1049   1.366       .  A
C1048      N1053   1.362       .  A
C1048      C1154   1.479       .  S
N1049      C1050   1.358       .  A
C1050      N1051   1.360       .  A
C1050      C1121   1.475       .  S
N1051      C1052   1.359       .  A
C1052      N1053   1.355       .  A
C1052      C1082   1.473       .  S
O1054      C1062   1.266   1_554  A
O1055      C1063   1.235       .  A
O1056      C1064   1.261       .  A
O1057      C1065   1.251   1_554  A
O1058      C1064   1.262   1_554  A
O1059      C1065   1.243       .  A
O1060      C1063   1.257   1_554  A
O1061      C1062   1.257       .  A
O1066      C1079   1.268       .  A
O1066     Co1074   1.860       .  S
O1067      C1080   1.273       .  A
O1067     Co1075   2.006       .  S
O1068      C1081   1.273       .  A
O1068     Co1076   2.045       .  S
O1069      C1082   1.298       .  A
O1069     Co1077   2.078       .  S
O1070      C1082   1.267       .  A
O1070     Co1075   1.898       .  S
O1071      C1081   1.257       .  A
O1071     Co1074   1.980       .  S
O1072      C1079   1.303       .  A
O1072     Co1077   2.099       .  S
O1073      C1080   1.268       .  A
O1073     Co1076   2.012       .  S
Co1074     O1078   1.876       .  S
Co1075     O1078   1.895       .  S
Co1076     O1078   2.084       .  S
Co1077     O1078   2.279       .  S
O1083      C1091   1.266       .  A
O1083     Co1103   1.964       .  S
O1084      C1092   1.253       .  A
O1084     Co1104   1.965       .  S
O1085      C1093   1.279       .  A
O1085     Co1105   2.070       .  S
O1086      C2402   1.296       .  A
O1086     Co1106   2.120       .  S
O1087      C1093   1.257       .  A
O1087     Co1104   1.956       .  S
O1088      C1094   1.260       .  A
O1088     Co1103   1.868       .  S
O1089      C1092   1.263       .  A
O1089     Co1106   2.019       .  S
O1090      C2399   1.283       .  A
O1090     Co1105   2.066       .  S
C1091      O2398   1.282       .  A
C1094      O2394   1.296       .  A
O1095      C1108   1.291       .  A
O1096      C1109   1.275   1_554  A
O1097      C2418   1.249       .  A
O1098      C1111   1.270       .  A
O1099      C1111   1.277   1_554  A
O1100      C1110   1.260   1_554  A
O1101      C2416   1.268       .  A
O1102      C1109   1.251       .  A
Co1103     O2415   1.956   1_455  S
Co1104     O1107   1.993       .  S
Co1105     O1107   2.051       .  S
Co1106     O1107   2.030       .  S
O1107     Co2411   1.958       .  S
C1108      O2409   1.268   1_455  A
C1110      O2405   1.250       .  A
O1112      C1120   1.268       .  A
O1112     Co1132   1.902       .  S
O1113      C1121   1.260       .  A
O1113     Co1133   1.981       .  S
O1114      C1122   1.298       .  A
O1115      C1123   1.268       .  A
O1115     Co1135   2.017       .  S
O1116      C1122   1.274       .  A
O1116     Co1133   1.909       .  S
O1117      C1123   1.272       .  A
O1117     Co1132   2.003       .  S
O1118      C1121   1.275       .  A
O1119      C1120   1.298       .  A
O1119     Co1134   2.071       .  S
O1124      C1137   1.262   1_554  A
O1125      C1138   1.241       .  A
O1126      C1139   1.250   1_554  A
O1127      C1140   1.257       .  A
O1128      C1140   1.269   1_554  A
O1129      C1139   1.232       .  A
O1130      C1137   1.262       .  A
O1131      C1138   1.254   1_554  A
Co1132     O1136   1.890       .  S
Co1134     O1136   2.273       .  S
Co1135     O1136   2.072       .  S
C1141      C1142   1.417       .  A
C1141      C1146   1.405       .  A
C1142      C1143   1.405       .  A
C1142      N1147   1.438       .  S
C1143      C1144   1.401       .  A
C1143      H1148   1.084       .  S
C1144      C1149   1.490       .  S
C1144      C1145   1.413       .  A
C1145      C1146   1.410       .  A
C1145      N1150   1.438       .  S
C1146      H1151   1.083       .  S
N1147      H1167   1.045       .  S
N1147      H1168   1.046       .  S
C1149      C1152   1.404       .  A
C1149      C1156   1.413       .  A
N1150      H1165   1.045       .  S
N1150      H1166   1.046       .  S
C1152      C1153   1.406       .  A
C1152      H1157   1.084       .  S
C1153      C1154   1.413       .  A
C1153      N1158   1.438       .  S
C1154      C1155   1.403       .  A
C1155      C1156   1.406       .  A
C1155      H1159   1.084       .  S
C1156      N1160   1.438       .  S
N1158      H1161   1.046       .  S
N1158      H1162   1.045       .  S
N1160      H1163   1.045       .  S
N1160      H1164   1.047       .  S
C1169      C1170   1.411       .  A
C1169      C1174   1.406       .  A
C1170      C1171   1.407       .  A
C1170      N1175   1.437       .  S
C1171      C1172   1.402       .  A
C1171      H1176   1.084       .  S
C1172      C1177   1.477       .  S
C1172      C1173   1.407       .  A
C1173      C1174   1.405       .  A
C1173      N1178   1.438       .  S
C1174      H1179   1.084       .  S
N1175      H1195   1.045       .  S
N1175      H1196   1.046       .  S
C1177      C1180   1.400       .  A
C1177      C1184   1.410       .  A
N1178      H1193   1.047       .  S
N1178      H1194   1.044       .  S
C1180      C1181   1.403       .  A
C1180      H1185   1.084       .  S
C1181      C1182   1.410       .  A
C1181      N1186   1.438       .  S
C1182      C1183   1.402       .  A
C1183      C1184   1.407       .  A
C1183      H1187   1.084       .  S
C1184      N1188   1.438       .  S
N1186      H1189   1.044       .  S
N1186      H1190   1.046       .  S
N1188      H1191   1.045       .  S
N1188      H1192   1.046       .  S
C1197      C1198   1.415       .  A
C1197      C1202   1.406       .  A
C1198      C1199   1.401       .  A
C1198      N1203   1.438       .  S
C1199      C1200   1.397       .  A
C1199      H1204   1.084       .  S
C1200      C1205   1.470       .  S
C1200      C1201   1.408       .  A
C1201      C1202   1.404       .  A
C1201      N1206   1.438       .  S
C1202      H1207   1.084       .  S
N1203      H1223   1.045       .  S
N1203      H1224   1.046       .  S
C1205      C1208   1.400       .  A
C1205      C1212   1.406       .  A
N1206      H1221   1.046       .  S
N1206      H1222   1.045       .  S
C1208      C1209   1.404       .  A
C1208      H1213   1.084       .  S
C1209      C1210   1.413       .  A
C1209      N1214   1.438       .  S
C1210      C1211   1.404       .  A
C1211      C1212   1.401       .  A
C1211      H1215   1.084       .  S
C1212      N1216   1.438       .  S
N1214      H1217   1.046       .  S
N1214      H1218   1.045       .  S
N1216      H1219   1.046       .  S
N1216      H1220   1.044       .  S
C1225      C1226   1.419       .  A
C1225      C1230   1.408       .  A
C1226      C1227   1.409       .  A
C1226      N1231   1.438       .  S
C1227      C1228   1.404       .  A
C1227      H1232   1.084       .  S
C1228      C1233   1.492       .  S
C1228      C1229   1.411       .  A
C1229      C1230   1.405       .  A
C1229      N1234   1.439       .  S
C1230      H1235   1.083       .  S
N1231      H1251   1.046       .  S
N1231      H2560   1.045       .  S
C1233      C1236   1.404       .  A
C1233      C1240   1.413       .  A
N1234      H1249   1.046       .  S
N1234      H1250   1.046       .  S
C1236      C1237   1.407       .  A
C1236      H1241   1.083       .  S
C1237      C1238   1.414       .  A
C1237      N1242   1.438       .  S
C1238      C1239   1.404       .  A
C1239      C1240   1.406       .  A
C1239      H1243   1.084       .  S
C1240      N1244   1.438       .  S
N1242      H1245   1.048       .  S
N1242      H1246   1.043       .  S
N1244      H1247   1.044   1_455  S
N1244      H1248   1.046       .  S
H1252      N2539   1.045       .  S
C1253      C1254   1.413       .  A
C1253      C1258   1.404       .  A
C1254      C1255   1.404       .  A
C1254      N1259   1.438       .  S
C1255      C1256   1.403       .  A
C1255      H1260   1.084       .  S
C1256      C1261   1.480       .  S
C1256      C1257   1.408       .  A
C1257      C1258   1.403       .  A
C1257      N1262   1.437       .  S
C1258      H1263   1.084       .  S
N1259      H1279   1.045       .  S
N1259      H2588   1.046   1_455  S
C1261      C1264   1.403       .  A
C1261      C1268   1.407       .  A
N1262      H1277   1.045       .  S
N1262      H1278   1.046       .  S
C1264      C1265   1.404       .  A
C1264      H1269   1.084       .  S
C1265      C1266   1.413       .  A
C1265      N1270   1.438       .  S
C1266      C1267   1.408       .  A
C1267      C1268   1.404       .  A
C1267      H1271   1.084       .  S
C1268      N1272   1.437       .  S
N1270      H1273   1.047       .  S
N1270      H1274   1.045       .  S
N1272      H1275   1.044       .  S
N1272      H1276   1.047       .  S
H1280      N2567   1.046       .  S
C1281      C1282   1.420       .  A
C1281      C1286   1.407       .  A
C1282      C1283   1.396       .  A
C1282      N1287   1.433       .  S
C1283      C1284   1.396       .  A
C1283      H1288   1.083       .  S
C1284      C1289   1.471       .  S
C1284      C1285   1.407       .  A
C1285      C1286   1.403       .  A
C1285      N1290   1.438       .  S
C1286      H1291   1.083       .  S
N1287      H1307   1.046       .  S
N1287      H1308   1.046       .  S
C1289      C1292   1.399       .  A
C1289      C1296   1.407       .  A
N1290      H1305   1.044       .  S
N1290      H1306   1.047       .  S
C1292      C1293   1.401       .  A
C1292      H1297   1.084       .  S
C1293      C1294   1.415       .  A
C1293      N1298   1.438       .  S
C1294      C1295   1.404       .  A
C1295      C1296   1.402       .  A
C1295      H1299   1.084       .  S
C1296      N1300   1.438       .  S
N1298      H1301   1.045       .  S
N1298      H1302   1.046       .  S
N1300      H1303   1.046       .  S
N1300      H1304   1.044       .  S
C1309      N1310   1.359       .  A
C1309      N1314   1.365       .  A
C1309      C1608   1.485       .  S
N1310      C1311   1.351       .  A
C1311      N1312   1.361       .  A
C1311      C1447   1.471       .  S
N1312      C1313   1.363       .  A
C1313      N1314   1.357       .  A
C1313      C1408   1.477       .  S
C1315      N1316   1.362       .  A
C1315      N1320   1.357       .  A
C1315      C1621   1.474       .  S
N1316      C1317   1.357       .  A
C1317      N1318   1.352       .  A
C1317      C1466   1.448       .  S
N1318      C1319   1.350       .  A
C1319      N1320   1.352       .  A
C1319      C1389   1.448       .  S
C1321      N1322   1.367       .  A
C1321      N1326   1.368       .  A
C1321      C1580   1.478       .  S
N1322      C1323   1.356       .  A
C1323      N1324   1.337       .  A
C1323      C1464   1.442       .  S
N1324      C1325   1.336       .  A
C1325      N1326   1.359       .  A
C1325      C1437   1.446       .  S
C1327      N1328   1.361       .  A
C1327      N1332   1.359       .  A
C1327      C1593   1.482       .  S
N1328      C1329   1.357       .  A
C1329      N1330   1.372       .  A
C1329      C1450   1.486       .  S
N1330      C1331   1.368       .  A
C1331      N1332   1.356       .  A
C1331      C1418   1.489       .  S
C1333      N1334   1.370       .  A
C1333      N1338   1.371       .  A
C1333      C1565   1.485       .  S
N1334      C1335   1.358       .  A
C1335      N1336   1.342       .  A
C1335      C1421   1.458       .  S
N1336      C1337   1.345       .  A
C1337      N1338   1.358       .  A
C1337      C1406   1.460       .  S
C1339      N1340   1.362       .  A
C1339      N1344   1.363       .  A
C1339      C1552   1.494       .  S
N1340      C1341   1.359       .  A
C1341      N1342   1.355       .  A
C1341      C1435   1.465       .  S
N1342      C1343   1.357       .  A
C1343      N1344   1.357       .  A
C1343      C1392   1.463       .  S
C1345      N1346   1.366       .  A
C1345      N1350   1.362       .  A
C1345      C1524   1.477       .  S
N1346      C1347   1.359       .  A
C1347      N1348   1.351       .  A
C1347      C1438   1.461       .  S
N1348      C1349   1.348       .  A
C1349      N1350   1.350       .  A
C1349      C1465   1.450       .  S
C1351      N1352   1.360       .  A
C1351      N1356   1.361       .  A
C1351      C1537   1.472       .  S
N1352      C1353   1.353       .  A
C1353      N1354   1.359       .  A
C1353      C1419   1.463       .  S
N1354      C1355   1.359       .  A
C1355      N1356   1.357       .  A
C1355      C1449   1.468       .  S
C1357      N1358   1.362       .  A
C1357      N1362   1.359       .  A
C1357      C1496   1.478       .  S
N1358      C1359   1.359       .  A
C1359      N1360   1.372       .  A
C1359      C1407   1.483       .  S
N1360      C1361   1.365       .  A
C1361      N1362   1.357       .  A
C1361      C1420   1.487       .  S
C1363      N1364   1.367       .  A
C1363      N1368   1.364       .  A
C1363      C1509   1.474       .  S
N1364      C1365   1.362       .  A
C1365      N1366   1.336       .  A
C1365      C1436   1.451       .  S
N1366      C1367   1.339       .  A
C1367      N1368   1.354       .  A
C1367      C1391   1.442       .  S
C1369      N1370   1.361       .  A
C1369      N1374   1.370       .  A
C1369      C1468   1.489       .  S
N1370      C1371   1.355       .  A
C1371      N1372   1.346       .  A
C1371      C1467   1.455       .  S
N1372      C1373   1.349       .  A
C1373      N1374   1.366       .  A
C1373      C1390   1.457       .  S
C1375      N1376   1.367       .  A
C1375      N1380   1.362       .  A
C1375      C1481   1.482       .  S
N1376      C1377   1.361       .  A
C1377      N1378   1.361       .  A
C1377      C1448   1.478       .  S
N1378      C1379   1.360       .  A
C1379      N1380   1.354       .  A
C1379      C1409   1.475       .  S
O1381      C1389   1.265       .  A
O1381     Co1728   2.003       .  S
O1382      C1390   1.236       .  A
O1382     Co1729   1.953       .  S
O1383      C1391   1.262       .  A
O1383     Co1730   1.992       .  S
O1384      C1392   1.251       .  A
O1384     Co1731   2.004       .  S
O1385      C1391   1.262       .  A
O1385     Co1729   1.957       .  S
O1386      C1392   1.243       .  A
O1386     Co1728   1.971       .  S
O1387      C1390   1.256       .  A
O1387     Co1731   2.019       .  S
O1388      C1389   1.257       .  A
O1388     Co1730   1.969       .  S
O1393      C1406   1.267       .  A
O1393     Co1401   1.858       .  S
O1394      C1407   1.273       .  A
O1394     Co1402   2.003       .  S
O1395      C1408   1.272       .  A
O1395     Co1403   2.040       .  S
O1396      C1409   1.299       .  A
O1396     Co1404   2.083       .  S
O1397      C1409   1.268       .  A
O1397     Co1402   1.898       .  S
O1398      C1408   1.258       .  A
O1398     Co1401   1.980       .  S
O1399      C1406   1.303       .  A
O1399     Co1404   2.100       .  S
O1400      C1407   1.268       .  A
O1400     Co1403   2.014       .  S
Co1401     O1708   2.001       .  S
Co1401     O1713   1.971   1_554  S
Co1401     O1405   1.876       .  S
Co1402     O1709   1.954   1_554  S
Co1402     O1712   1.958       .  S
Co1402     O1405   1.898       .  S
Co1403     O1710   1.990   1_554  S
Co1403     O1715   1.969   1_554  S
Co1403     O1405   2.084       .  S
Co1404     O1711   2.005       .  S
Co1404     O1714   2.020       .  S
Co1404     O1405   2.278       .  S
O1410      C1418   1.266       .  A
O1410     Co1430   1.966       .  S
O1411      C1419   1.253       .  A
O1411     Co1431   1.966       .  S
O1412      C1420   1.280       .  A
O1412     Co1432   2.071       .  S
O1413     Co1433   2.122   1_455  S
O1414      C1420   1.257       .  A
O1414     Co1431   1.957       .  S
O1415      C1421   1.261       .  A
O1415     Co1430   1.870       .  S
O1416      C1419   1.262       .  A
O1416     Co1433   2.016       .  S
O1417     Co1432   2.066   1_455  S
O1422      C1435   1.291       .  A
O1422     Co1757   2.101       .  S
O1423      C1436   1.275       .  A
O1423     Co1758   2.009       .  S
O1424     Co1759   1.979   1_455  S
O1425      C1438   1.270       .  A
O1425     Co1760   1.982       .  S
O1426      C1438   1.278       .  A
O1426     Co1758   2.015       .  S
O1427      C1437   1.260       .  A
O1427     Co1757   1.977       .  S
O1428     Co1760   1.912       .  S
O1429      C1436   1.252       .  A
O1429     Co1759   1.957       .  S
Co1430     O1749   2.103       .  S
Co1430     O1754   1.977       .  S
Co1431     O1750   2.012       .  S
Co1431     O1753   2.012       .  S
Co1431     O1434   1.993       .  S
Co1432     O1751   1.979   1_654  S
Co1432     O1756   1.956   1_554  S
Co1432     O1434   2.052       .  S
Co1433     O1752   1.981   1_554  S
Co1433     O1755   1.911       .  S
Co1433     O1434   2.031       .  S
O1439      C1447   1.268       .  A
O1439     Co1459   1.903       .  S
O1440      C1448   1.260       .  A
O1440     Co1460   1.982       .  S
O1441      C1449   1.298       .  A
O1441     Co2115   2.069   1_545  S
O1442      C1450   1.269       .  A
O1442     Co1462   2.019       .  S
O1443      C1449   1.273       .  A
O1443     Co1460   1.908       .  S
O1444      C1450   1.272       .  A
O1444     Co1459   2.001       .  S
O1445      C1448   1.277       .  A
O1445     Co2116   2.047   1_545  S
O1446      C1447   1.298       .  A
O1446     Co1461   2.075       .  S
O1451      C1464   1.263       .  A
O1451     Co1786   1.963       .  S
O1452      C1465   1.241       .  A
O1452     Co1787   1.958       .  S
O1453      C1466   1.251       .  A
O1453     Co1788   2.010       .  S
O1454      C1467   1.256       .  A
O1454     Co2443   1.969   1_545  S
O1455      C1467   1.269       .  A
O1455     Co1787   2.009       .  S
O1456      C1466   1.232       .  A
O1456     Co1786   1.950       .  S
O1457      C1464   1.262       .  A
O1457     Co1789   1.995       .  S
O1458      C1465   1.253       .  A
O1458     Co2442   2.001   1_545  S
Co1459     O1778   1.962       .  S
Co1459     O1783   1.950   1_554  S
Co1459     O1463   1.891       .  S
Co1460     O1779   1.956   1_554  S
Co1460     O1782   2.010       .  S
Co1460     O2117   1.901   1_545  S
Co1461     O2095   2.072       .  S
Co1461     O1780   2.010       .  S
Co1461     O2439   2.002       .  S
Co1461     O1463   2.273       .  S
Co1462     O2099   2.040       .  S
Co1462     O2435   1.971   1_554  S
Co1462     O1784   1.994   1_554  S
Co1462     O1463   2.073       .  S
O1463     Co2114   1.904       .  S
C1468      C1469   1.416       .  A
C1468      C1473   1.405       .  A
C1469      C1470   1.406       .  A
C1469      N1474   1.438       .  S
C1470      C1471   1.402       .  A
C1470      H1475   1.084       .  S
C1471      C1476   1.491       .  S
C1471      C1472   1.413       .  A
C1472      C1473   1.410       .  A
C1472      N1477   1.438       .  S
C1473      H1478   1.083       .  S
N1474      H1494   1.046       .  S
N1474      H1495   1.046       .  S
C1476      C1479   1.403       .  A
C1476      C1483   1.414       .  A
N1477      H1492   1.046       .  S
N1477      H1493   1.046       .  S
C1479      C1480   1.406       .  A
C1479      H1484   1.084       .  S
C1480      C1481   1.413       .  A
C1480      N1485   1.438       .  S
C1481      C1482   1.403       .  A
C1482      C1483   1.408       .  A
C1482      H1486   1.084       .  S
C1483      N1487   1.438       .  S
N1485      H1488   1.046       .  S
N1485      H1489   1.045       .  S
N1487      H1490   1.045       .  S
N1487      H1491   1.047       .  S
C1496      C1497   1.411       .  A
C1496      C1501   1.405       .  A
C1497      C1498   1.407       .  A
C1497      N1502   1.438       .  S
C1498      C1499   1.402       .  A
C1498      H1503   1.084       .  S
C1499      C1504   1.478       .  S
C1499      C1500   1.408       .  A
C1500      C1501   1.405       .  A
C1500      N1505   1.438       .  S
C1501      H1506   1.084       .  S
N1502      H1522   1.046       .  S
N1502      H1523   1.045       .  S
C1504      C1507   1.400       .  A
C1504      C1511   1.410       .  A
N1505      H1520   1.047       .  S
N1505      H1521   1.044       .  S
C1507      C1508   1.404       .  A
C1507      H1512   1.084       .  S
C1508      C1509   1.411       .  A
C1508      N1513   1.438       .  S
C1509      C1510   1.403       .  A
C1510      C1511   1.408       .  A
C1510      H1514   1.084       .  S
C1511      N1515   1.438       .  S
N1513      H1516   1.044       .  S
N1513      H1517   1.045       .  S
N1515      H1518   1.045       .  S
N1515      H1519   1.045       .  S
C1524      C1525   1.415       .  A
C1524      C1529   1.405       .  A
C1525      C1526   1.401       .  A
C1525      N1530   1.438       .  S
C1526      C1527   1.397       .  A
C1526      H1531   1.084       .  S
C1527      C1532   1.470       .  S
C1527      C1528   1.408       .  A
C1528      C1529   1.404       .  A
C1528      N1533   1.438       .  S
C1529      H1534   1.084       .  S
N1530      H1550   1.045       .  S
N1530      H1551   1.046       .  S
C1532      C1535   1.400       .  A
C1532      C1539   1.405       .  A
N1533      H1548   1.046       .  S
N1533      H1549   1.045       .  S
C1535      C1536   1.405       .  A
C1535      H1540   1.084       .  S
C1536      C1537   1.413       .  A
C1536      N1541   1.438       .  S
C1537      C1538   1.404       .  A
C1538      C1539   1.401       .  A
C1538      H1542   1.084       .  S
C1539      N1543   1.438       .  S
N1541      H1544   1.046       .  S
N1541      H1545   1.045       .  S
N1543      H1546   1.046       .  S
N1543      H1547   1.045       .  S
C1552      C1553   1.419       .  A
C1552      C1557   1.408       .  A
C1553      C1554   1.409       .  A
C1553      N1558   1.438       .  S
C1554      C1555   1.403       .  A
C1554      H1559   1.084       .  S
C1555      C1560   1.490       .  S
C1555      C1556   1.411       .  A
C1556      C1557   1.405       .  A
C1556      N1561   1.439       .  S
C1557      H1562   1.083       .  S
N1558      H1578   1.046       .  S
C1560      C1563   1.404       .  A
C1560      C1567   1.413       .  A
N1561      H1576   1.045       .  S
N1561      H1577   1.046       .  S
C1563      C1564   1.406       .  A
C1563      H1568   1.084       .  S
C1564      C1565   1.415       .  A
C1564      N1569   1.438       .  S
C1565      C1566   1.404       .  A
C1566      C1567   1.407       .  A
C1566      H1570   1.084       .  S
C1567      N1571   1.438       .  S
N1569      H1572   1.049       .  S
N1569      H1573   1.043       .  S
N1571      H1574   1.045       .  S
N1571      H1575   1.046       .  S
C1580      C1581   1.412       .  A
C1580      C1585   1.406       .  A
C1581      C1582   1.404       .  A
C1581      N1586   1.438       .  S
C1582      C1583   1.403       .  A
C1582      H1587   1.084       .  S
C1583      C1588   1.481       .  S
C1583      C1584   1.407       .  A
C1584      C1585   1.404       .  A
C1584      N1589   1.436       .  S
C1585      H1590   1.084       .  S
N1586      H1606   1.045       .  S
C1588      C1591   1.403       .  A
C1588      C1595   1.407       .  A
N1589      H1604   1.045       .  S
N1589      H1605   1.046       .  S
C1591      C1592   1.405       .  A
C1591      H1596   1.084       .  S
C1592      C1593   1.414       .  A
C1592      N1597   1.438       .  S
C1593      C1594   1.407       .  A
C1594      C1595   1.404       .  A
C1594      H1598   1.084       .  S
C1595      N1599   1.437       .  S
N1597      H1600   1.047       .  S
N1597      H1601   1.045       .  S
N1599      H1602   1.044       .  S
N1599      H1603   1.047       .  S
C1608      C1609   1.418       .  A
C1608      C1613   1.408       .  A
C1609      C1610   1.396       .  A
C1609      N1614   1.433       .  S
C1610      C1611   1.396       .  A
C1610      H1615   1.083       .  S
C1611      C1616   1.471       .  S
C1611      C1612   1.407       .  A
C1612      C1613   1.403       .  A
C1612      N1617   1.438       .  S
C1613      H1618   1.083       .  S
N1614      H1634   1.047       .  S
N1614      H1635   1.045       .  S
C1616      C1619   1.399       .  A
C1616      C1623   1.407       .  A
N1617      H1632   1.043       .  S
N1617      H1633   1.048       .  S
C1619      C1620   1.401       .  A
C1619      H1624   1.084       .  S
C1620      C1621   1.416       .  A
C1620      N1625   1.439       .  S
C1621      C1622   1.403       .  A
C1622      C1623   1.401       .  A
C1622      H1626   1.084       .  S
C1623      N1627   1.438       .  S
N1625      H1628   1.045       .  S
N1625      H1629   1.047       .  S
N1627      H1630   1.046       .  S
N1627      H1631   1.044       .  S
C1636      N1637   1.359       .  A
C1636      N1641   1.366       .  A
C1636      C1935   1.487       .  S
N1637      C1638   1.350       .  A
C1638      N1639   1.361       .  A
C1638      C1774   1.470       .  S
N1639      C1640   1.363       .  A
C1640      N1641   1.359       .  A
C1640      C1735   1.478       .  S
C1642      N1643   1.362       .  A
C1642      N1647   1.357       .  A
C1642      C1948   1.472       .  S
N1643      C1644   1.357       .  A
C1644      N1645   1.351       .  A
C1644      C1793   1.448       .  S
N1645      C1646   1.350       .  A
C1646      N1647   1.351       .  A
C1646      C1716   1.446       .  S
C1648      N1649   1.366       .  A
C1648      N1653   1.367       .  A
C1648      C1907   1.474       .  S
N1649      C1650   1.355       .  A
C1650      N1651   1.337       .  A
C1650      C1791   1.441       .  S
N1651      C1652   1.336       .  A
C1652      N1653   1.358       .  A
C1652      C1764   1.445       .  S
C1654      N1655   1.361       .  A
C1654      N1659   1.360       .  A
C1654      C1920   1.485       .  S
N1655      C1656   1.357       .  A
C1656      N1657   1.372       .  A
C1656      C1777   1.487       .  S
N1657      C1658   1.368       .  A
C1658      N1659   1.356       .  A
C1658      C1745   1.489       .  S
C1660      N1661   1.370       .  A
C1660      N1665   1.371       .  A
C1660      C1892   1.487       .  S
N1661      C1662   1.358       .  A
C1662      N1663   1.342       .  A
C1662      C1748   1.457       .  S
N1663      C1664   1.345       .  A
C1664      N1665   1.358       .  A
C1664      C1733   1.461       .  S
C1666      N1667   1.363       .  A
C1666      N1671   1.363       .  A
C1666      C1879   1.495       .  S
N1667      C1668   1.360       .  A
C1668      N1669   1.355       .  A
C1668      C1762   1.467   1_556  S
N1669      C1670   1.357       .  A
C1670      N1671   1.358       .  A
C1670      C1719   1.463       .  S
C1672      N1673   1.367       .  A
C1672      N1677   1.361       .  A
C1672      C1851   1.477       .  S
N1673      C1674   1.359       .  A
C1674      N1675   1.351       .  A
C1674      C1765   1.459       .  S
N1675      C1676   1.346       .  A
C1676      N1677   1.350       .  A
C1676      C1792   1.448       .  S
C1678      N1679   1.359       .  A
C1678      N1683   1.360       .  A
C1678      C1864   1.469       .  S
N1679      C1680   1.353       .  A
C1680      N1681   1.360       .  A
C1680      C1746   1.464       .  S
N1681      C1682   1.359       .  A
C1682      N1683   1.356       .  A
C1682      C1776   1.467       .  S
C1684      N1685   1.362       .  A
C1684      N1689   1.359       .  A
C1684      C1823   1.478       .  S
N1685      C1686   1.359       .  A
C1686      N1687   1.372       .  A
C1686      C1734   1.483       .  S
N1687      C1688   1.365       .  A
C1688      N1689   1.357       .  A
C1688      C1747   1.488       .  S
C1690      N1691   1.368       .  A
C1690      N1695   1.364       .  A
C1690      C1836   1.475       .  S
N1691      C1692   1.363       .  A
C1692      N1693   1.336       .  A
C1692      C1763   1.452       .  S
N1693      C1694   1.339       .  A
C1694      N1695   1.354       .  A
C1694      C1718   1.441       .  S
C1696      N1697   1.361       .  A
C1696      N1701   1.370       .  A
C1696      C1795   1.491       .  S
N1697      C1698   1.355       .  A
C1698      N1699   1.346       .  A
C1698      C1794   1.455       .  S
N1699      C1700   1.350       .  A
C1700      N1701   1.367       .  A
C1700      C1717   1.458       .  S
C1702      N1703   1.368       .  A
C1702      N1707   1.362       .  A
C1702      C1808   1.482       .  S
N1703      C1704   1.362       .  A
C1704      N1705   1.361       .  A
C1704      C1775   1.480       .  S
N1705      C1706   1.360       .  A
C1706      N1707   1.353       .  A
C1706      C1736   1.473       .  S
O1708      C1716   1.265   1_554  A
O1709      C1717   1.236       .  A
O1710      C1718   1.261       .  A
O1711      C1719   1.251   1_554  A
O1712      C1718   1.262   1_554  A
O1713      C1719   1.243       .  A
O1714      C1717   1.257   1_554  A
O1715      C1716   1.257       .  A
O1720      C1733   1.268       .  A
O1720     Co1728   1.859       .  S
O1721      C1734   1.273       .  A
O1721     Co1729   2.004       .  S
O1722      C1735   1.273       .  A
O1722     Co1730   2.042       .  S
O1723      C1736   1.299       .  A
O1723     Co1731   2.082       .  S
O1724      C1736   1.267       .  A
O1724     Co1729   1.896       .  S
O1725      C1735   1.258       .  A
O1725     Co1728   1.980       .  S
O1726      C1733   1.303       .  A
O1726     Co1731   2.101       .  S
O1727      C1734   1.268       .  A
O1727     Co1730   2.014       .  S
Co1728     O1732   1.877       .  S
Co1729     O1732   1.898       .  S
Co1730     O1732   2.083       .  S
Co1731     O1732   2.278       .  S
O1737      C1745   1.266       .  A
O1737     Co1757   1.966       .  S
O1738      C1746   1.253       .  A
O1738     Co1758   1.966       .  S
O1739      C1747   1.280       .  A
O1739     Co1759   2.070       .  S
O1740     Co1760   2.122   1_455  S
O1741      C1747   1.258       .  A
O1741     Co1758   1.959       .  S
O1742      C1748   1.261       .  A
O1742     Co1757   1.871       .  S
O1743      C1746   1.262       .  A
O1743     Co1760   2.016       .  S
O1744     Co1759   2.068   1_455  S
O1749      C1762   1.291       .  A
O1750      C1763   1.276   1_554  A
O1752      C1765   1.270       .  A
O1753      C1765   1.278   1_554  A
O1754      C1764   1.260   1_554  A
O1756      C1763   1.251       .  A
Co1758     O1761   1.995       .  S
Co1759     O1761   2.052       .  S
Co1760     O1761   2.032       .  S
O1766      C1774   1.268       .  A
O1766     Co1786   1.901       .  S
O1767      C1775   1.260       .  A
O1767     Co1787   1.983       .  S
O1768      C1776   1.298       .  A
O1768     Co2442   2.070   1_545  S
O1769      C1777   1.269       .  A
O1769     Co1789   2.020       .  S
O1770      C1776   1.273       .  A
O1770     Co1787   1.905       .  S
O1771      C1777   1.272       .  A
O1771     Co1786   2.001       .  S
O1772      C1775   1.277       .  A
O1772     Co2443   2.047   1_545  S
O1773      C1774   1.299       .  A
O1773     Co1788   2.075       .  S
O1778      C1791   1.262   1_554  A
O1779      C1792   1.240       .  A
O1780      C1793   1.251   1_554  A
O1781      C1794   1.256       .  A
O1781     Co2116   1.970   1_546  S
O1782      C1794   1.269   1_554  A
O1783      C1793   1.231       .  A
O1784      C1791   1.262       .  A
O1785      C1792   1.253   1_554  A
O1785     Co2115   2.000   1_545  S
Co1786     O1790   1.893       .  S
Co1787     O2444   1.902   1_545  S
Co1788     O2422   2.074       .  S
Co1788     O2112   2.003       .  S
Co1788     O1790   2.274       .  S
Co1789     O2426   2.041       .  S
Co1789     O2108   1.971       .  S
Co1789     O1790   2.074       .  S
O1790     Co2441   1.905       .  S
C1795      C1796   1.417       .  A
C1795      C1800   1.405       .  A
C1796      C1797   1.406       .  A
C1796      N1801   1.438       .  S
C1797      C1798   1.402       .  A
C1797      H1802   1.084       .  S
C1798      C1803   1.492       .  S
C1798      C1799   1.414       .  A
C1799      C1800   1.411       .  A
C1799      N1804   1.438       .  S
C1800      H1805   1.083       .  S
N1801      H1821   1.046       .  S
N1801      H1822   1.046       .  S
C1803      C1806   1.403       .  A
C1803      C1810   1.414       .  A
N1804      H1819   1.046       .  S
N1804      H1820   1.046       .  S
C1806      C1807   1.406       .  A
C1806      H1811   1.084       .  S
C1807      C1808   1.414       .  A
C1807      N1812   1.438       .  S
C1808      C1809   1.403       .  A
C1809      C1810   1.408       .  A
C1809      H1813   1.084       .  S
C1810      N1814   1.438       .  S
N1812      H1815   1.046       .  S
N1812      H1816   1.045       .  S
N1814      H1817   1.044       .  S
N1814      H1818   1.047       .  S
C1823      C1824   1.412       .  A
C1823      C1828   1.405       .  A
C1824      C1825   1.408       .  A
C1824      N1829   1.438       .  S
C1825      C1826   1.403       .  A
C1825      H1830   1.084       .  S
C1826      C1831   1.478       .  S
C1826      C1827   1.408       .  A
C1827      C1828   1.404       .  A
C1827      N1832   1.438       .  S
C1828      H1833   1.084       .  S
N1829      H1849   1.045       .  S
N1829      H1850   1.046       .  S
C1831      C1834   1.399       .  A
C1831      C1838   1.411       .  A
N1832      H1847   1.047       .  S
N1832      H1848   1.044       .  S
C1834      C1835   1.404       .  A
C1834      H1839   1.084       .  S
C1835      C1836   1.411       .  A
C1835      N1840   1.438       .  S
C1836      C1837   1.403       .  A
C1837      C1838   1.408       .  A
C1837      H1841   1.084       .  S
C1838      N1842   1.438       .  S
N1840      H1843   1.045       .  S
N1840      H1844   1.045       .  S
N1842      H1845   1.045       .  S
N1842      H1846   1.045       .  S
C1851      C1852   1.416       .  A
C1851      C1856   1.405       .  A
C1852      C1853   1.400       .  A
C1852      N1857   1.438       .  S
C1853      C1854   1.396       .  A
C1853      H1858   1.084       .  S
C1854      C1859   1.468       .  S
C1854      C1855   1.407       .  A
C1855      C1856   1.404       .  A
C1855      N1860   1.438       .  S
C1856      H1861   1.084       .  S
N1857      H1877   1.044       .  S
N1857      H1878   1.046       .  S
C1859      C1862   1.400       .  A
C1859      C1866   1.406       .  A
N1860      H1875   1.046       .  S
N1860      H1876   1.045       .  S
C1862      C1863   1.404       .  A
C1862      H1867   1.084       .  S
C1863      C1864   1.413       .  A
C1863      N1868   1.438       .  S
C1864      C1865   1.402       .  A
C1865      C1866   1.400       .  A
C1865      H1869   1.084       .  S
C1866      N1870   1.438       .  S
N1868      H1871   1.046       .  S
N1868      H1872   1.045       .  S
N1870      H1873   1.046       .  S
N1870      H1874   1.045       .  S
C1879      C1880   1.419       .  A
C1879      C1884   1.408       .  A
C1880      C1881   1.409       .  A
C1880      N1885   1.438       .  S
C1881      C1882   1.404       .  A
C1881      H1886   1.084       .  S
C1882      C1887   1.491       .  S
C1882      C1883   1.411       .  A
C1883      C1884   1.405       .  A
C1883      N1888   1.439       .  S
C1884      H1889   1.083       .  S
N1885      H1905   1.046       .  S
C1887      C1890   1.403       .  A
C1887      C1894   1.413       .  A
N1888      H1903   1.045       .  S
N1888      H1904   1.046       .  S
C1890      C1891   1.406       .  A
C1890      H1895   1.083       .  S
C1891      C1892   1.415       .  A
C1891      N1896   1.438       .  S
C1892      C1893   1.405       .  A
C1893      C1894   1.407       .  A
C1893      H1897   1.083       .  S
C1894      N1898   1.438       .  S
N1896      H1899   1.048       .  S
N1896      H1900   1.043       .  S
N1898      H1901   1.045       .  S
N1898      H1902   1.046       .  S
C1907      C1908   1.411       .  A
C1907      C1912   1.404       .  A
C1908      C1909   1.404       .  A
C1908      N1913   1.438       .  S
C1909      C1910   1.403       .  A
C1909      H1914   1.084       .  S
C1910      C1915   1.481       .  S
C1910      C1911   1.408       .  A
C1911      C1912   1.404       .  A
C1911      N1916   1.436       .  S
C1912      H1917   1.084       .  S
N1913      H1933   1.045       .  S
C1915      C1918   1.402       .  A
C1915      C1922   1.406       .  A
N1916      H1931   1.045       .  S
N1916      H1932   1.046       .  S
C1918      C1919   1.405       .  A
C1918      H1923   1.084       .  S
C1919      C1920   1.415       .  A
C1919      N1924   1.438       .  S
C1920      C1921   1.408       .  A
C1921      C1922   1.404       .  A
C1921      H1925   1.084       .  S
C1922      N1926   1.437       .  S
N1924      H1927   1.047       .  S
N1924      H1928   1.045       .  S
N1926      H1929   1.043       .  S
N1926      H1930   1.047       .  S
C1935      C1936   1.419       .  A
C1935      C1940   1.408       .  A
C1936      C1937   1.396       .  A
C1936      N1941   1.433       .  S
C1937      C1938   1.397       .  A
C1937      H1942   1.084       .  S
C1938      C1943   1.474       .  S
C1938      C1939   1.408       .  A
C1939      C1940   1.404       .  A
C1939      N1944   1.438       .  S
C1940      H1945   1.083       .  S
N1941      H1961   1.047       .  S
N1941      H1962   1.045       .  S
C1943      C1946   1.400       .  A
C1943      C1950   1.409       .  A
N1944      H1959   1.045       .  S
N1944      H1960   1.046       .  S
C1946      C1947   1.401       .  A
C1946      H1951   1.083       .  S
C1947      C1948   1.415       .  A
C1947      N1952   1.439       .  S
C1948      C1949   1.402       .  A
C1949      C1950   1.400       .  A
C1949      H1953   1.084       .  S
C1950      N1954   1.438       .  S
N1952      H1955   1.045       .  S
N1952      H1956   1.047       .  S
N1954      H1957   1.047       .  S
N1954      H1958   1.044       .  S
C1963      N1964   1.357       .  A
C1963      N1968   1.366       .  A
C1963      C2262   1.484       .  S
N1964      C1965   1.348       .  A
C1965      N1966   1.361       .  A
C1965      C2101   1.468       .  S
N1966      C1967   1.363       .  A
C1967      N1968   1.360       .  A
C1967      C2062   1.478       .  S
C1969      N1970   1.361       .  A
C1969      N1974   1.359       .  A
C1969      C2275   1.474       .  S
N1970      C1971   1.356       .  A
C1971      N1972   1.350       .  A
C1971      C2120   1.445       .  S
N1972      C1973   1.349       .  A
C1973      N1974   1.353       .  A
C1973      C2043   1.449       .  S
C1975      N1976   1.367       .  A
C1975      N1980   1.367       .  A
C1975      C2234   1.476       .  S
N1976      C1977   1.356       .  A
C1977      N1978   1.337       .  A
C1977      C2118   1.443       .  S
N1978      C1979   1.336       .  A
C1979      N1980   1.358       .  A
C1979      C2091   1.445       .  S
C1981      N1982   1.361       .  A
C1981      N1986   1.358       .  A
C1981      C2247   1.480       .  S
N1982      C1983   1.357       .  A
C1983      N1984   1.372       .  A
C1983      C2104   1.485       .  S
N1984      C1985   1.367       .  A
C1985      N1986   1.355       .  A
C1985      C2072   1.487       .  S
C1987      N1988   1.369       .  A
C1987      N1992   1.371       .  A
C1987      C2219   1.484       .  S
N1988      C1989   1.358       .  A
C1989      N1990   1.343       .  A
C1989      C2075   1.456       .  S
N1990      C1991   1.345       .  A
C1991      N1992   1.359       .  A
C1991      C2060   1.460       .  S
C1993      N1994   1.363       .  A
C1993      N1998   1.363       .  A
C1993      C2206   1.497       .  S
N1994      C1995   1.360       .  A
C1995      N1996   1.355       .  A
C1995      C2089   1.467       .  S
N1996      C1997   1.357       .  A
C1997      N1998   1.357       .  A
C1997      C2046   1.463       .  S
C1999      N2000   1.365       .  A
C1999      N2004   1.362       .  A
C1999      C2178   1.478       .  S
N2000      C2001   1.358       .  A
C2001      N2002   1.351       .  A
C2001      C2092   1.458       .  S
N2002      C2003   1.347       .  A
C2003      N2004   1.351       .  A
C2003      C2119   1.451       .  S
C2005      N2006   1.359       .  A
C2005      N2010   1.361       .  A
C2005      C2191   1.472       .  S
N2006      C2007   1.353       .  A
C2007      N2008   1.360       .  A
C2007      C2073   1.464       .  S
N2008      C2009   1.360       .  A
C2009      N2010   1.357       .  A
C2009      C2103   1.470       .  S
C2011      N2012   1.364       .  A
C2011      N2016   1.358       .  A
C2011      C2150   1.480       .  S
N2012      C2013   1.361       .  A
C2013      N2014   1.371       .  A
C2013      C2061   1.485       .  S
N2014      C2015   1.365       .  A
C2015      N2016   1.356       .  A
C2015      C2074   1.486       .  S
C2017      N2018   1.366       .  A
C2017      N2022   1.364       .  A
C2017      C2163   1.471       .  S
N2018      C2019   1.361       .  A
C2019      N2020   1.335       .  A
C2019      C2090   1.449       .  S
N2020      C2021   1.339       .  A
C2021      N2022   1.355       .  A
C2021      C2045   1.441       .  S
C2023      N2024   1.361       .  A
C2023      N2028   1.369       .  A
C2023      C2122   1.489       .  S
N2024      C2025   1.355       .  A
C2025      N2026   1.347       .  A
C2025      C2121   1.456       .  S
N2026      C2027   1.350       .  A
C2027      N2028   1.366       .  A
C2027      C2044   1.458       .  S
C2029      N2030   1.366       .  A
C2029      N2034   1.363       .  A
C2029      C2135   1.480       .  S
N2030      C2031   1.359       .  A
C2031      N2032   1.360       .  A
C2031      C2102   1.475       .  S
N2032      C2033   1.359       .  A
C2033      N2034   1.355       .  A
C2033      C2063   1.474       .  S
O2035      C2043   1.266       .  A
O2035     Co2382   2.005       .  S
O2036      C2044   1.235       .  A
O2036     Co2383   1.954       .  S
O2037      C2045   1.261       .  A
O2037     Co2384   1.993       .  S
O2038      C2046   1.251       .  A
O2038     Co2385   2.004       .  S
O2039      C2045   1.262       .  A
O2039     Co2383   1.956       .  S
O2040      C2046   1.243       .  A
O2040     Co2382   1.971       .  S
O2041      C2044   1.257       .  A
O2041     Co2385   2.023       .  S
O2042      C2043   1.256       .  A
O2042     Co2384   1.970       .  S
O2047      C2060   1.268       .  A
O2047     Co2055   1.862       .  S
O2048      C2061   1.273       .  A
O2048     Co2056   2.006       .  S
O2049      C2062   1.273       .  A
O2049     Co2057   2.043       .  S
O2050      C2063   1.298       .  A
O2050     Co2058   2.079       .  S
O2051      C2063   1.268       .  A
O2051     Co2056   1.898       .  S
O2052      C2062   1.257       .  A
O2052     Co2055   1.980       .  S
O2053      C2060   1.303       .  A
O2053     Co2058   2.099       .  S
O2054      C2061   1.268       .  A
O2054     Co2057   2.014       .  S
Co2055     O2362   2.005       .  S
Co2055     O2367   1.971   1_554  S
Co2055     O2059   1.877       .  S
Co2056     O2363   1.953   1_554  S
Co2056     O2366   1.957       .  S
Co2056     O2059   1.896       .  S
Co2057     O2364   1.994   1_554  S
Co2057     O2369   1.970   1_554  S
Co2057     O2059   2.084       .  S
Co2058     O2365   2.004       .  S
Co2058     O2368   2.023       .  S
Co2058     O2059   2.279       .  S
O2064      C2072   1.266       .  A
O2064     Co2084   1.965       .  S
O2065      C2073   1.253       .  A
O2065     Co2085   1.965       .  S
O2066      C2074   1.280       .  A
O2066     Co2086   2.070       .  S
O2067     Co2087   2.120   1_455  S
O2068      C2074   1.257       .  A
O2068     Co2085   1.957       .  S
O2069      C2075   1.261       .  A
O2069     Co2084   1.868       .  S
O2070      C2073   1.263       .  A
O2070     Co2087   2.018       .  S
O2071     Co2086   2.065   1_455  S
O2076      C2089   1.291       .  A
O2076     Co2411   2.102       .  S
O2077      C2090   1.275       .  A
O2077     Co2412   2.009       .  S
O2078     Co2413   1.978   1_455  S
O2079      C2092   1.270       .  A
O2079     Co2414   1.980       .  S
O2080      C2092   1.277       .  A
O2080     Co2412   2.011       .  S
O2081      C2091   1.260       .  A
O2081     Co2411   1.976       .  S
O2082     Co2414   1.911       .  S
O2083      C2090   1.251       .  A
O2083     Co2413   1.955       .  S
Co2084     O2403   2.103       .  S
Co2084     O2408   1.977       .  S
Co2085     O2404   2.010       .  S
Co2085     O2407   2.011       .  S
Co2085     O2088   1.993       .  S
Co2086     O2405   1.980   1_654  S
Co2086     O2410   1.956   1_554  S
Co2086     O2088   2.051       .  S
Co2087     O2406   1.979   1_554  S
Co2087     O2409   1.912       .  S
Co2087     O2088   2.030       .  S
O2093      C2101   1.268       .  A
O2093     Co2113   1.902       .  S
O2094      C2102   1.261       .  A
O2094     Co2114   1.981       .  S
O2095      C2103   1.298       .  A
O2096      C2104   1.268       .  A
O2096     Co2116   2.016       .  S
O2097      C2103   1.273       .  A
O2097     Co2114   1.908       .  S
O2098      C2104   1.273       .  A
O2098     Co2113   2.003       .  S
O2099      C2102   1.275       .  A
O2100      C2101   1.298       .  A
O2100     Co2115   2.071       .  S
O2105      C2118   1.262       .  A
O2105     Co2440   1.961       .  S
O2106      C2119   1.240       .  A
O2106     Co2441   1.957       .  S
O2107      C2120   1.250       .  A
O2107     Co2442   2.007       .  S
O2108      C2121   1.257       .  A
O2109      C2121   1.269       .  A
O2109     Co2441   2.011       .  S
O2110      C2120   1.232       .  A
O2110     Co2440   1.950       .  S
O2111      C2118   1.262       .  A
O2111     Co2443   1.997       .  S
O2112      C2119   1.254       .  A
Co2113     O2432   1.960       .  S
Co2113     O2437   1.952   1_554  S
Co2113     O2117   1.891       .  S
Co2114     O2433   1.958   1_554  S
Co2114     O2436   2.011       .  S
Co2115     O2434   2.007       .  S
Co2115     O2117   2.273       .  S
Co2116     O2438   1.996   1_554  S
Co2116     O2117   2.072       .  S
C2122      C2123   1.417       .  A
C2122      C2127   1.405       .  A
C2123      C2124   1.406       .  A
C2123      N2128   1.438       .  S
C2124      C2125   1.402       .  A
C2124      H2129   1.084       .  S
C2125      C2130   1.490       .  S
C2125      C2126   1.413       .  A
C2126      C2127   1.410       .  A
C2126      N2131   1.438       .  S
C2127      H2132   1.083       .  S
N2128      H2148   1.046       .  S
N2128      H2149   1.046       .  S
C2130      C2133   1.404       .  A
C2130      C2137   1.413       .  A
N2131      H2146   1.046       .  S
N2131      H2147   1.046       .  S
C2133      C2134   1.406       .  A
C2133      H2138   1.084       .  S
C2134      C2135   1.413       .  A
C2134      N2139   1.438       .  S
C2135      C2136   1.403       .  A
C2136      C2137   1.406       .  A
C2136      H2140   1.084       .  S
C2137      N2141   1.438       .  S
N2139      H2142   1.046       .  S
N2139      H2143   1.046       .  S
N2141      H2144   1.045       .  S
N2141      H2145   1.047       .  S
C2150      C2151   1.411       .  A
C2150      C2155   1.406       .  A
C2151      C2152   1.407       .  A
C2151      N2156   1.437       .  S
C2152      C2153   1.402       .  A
C2152      H2157   1.084       .  S
C2153      C2158   1.477       .  S
C2153      C2154   1.407       .  A
C2154      C2155   1.405       .  A
C2154      N2159   1.438       .  S
C2155      H2160   1.084       .  S
N2156      H2176   1.044       .  S
N2156      H2177   1.047       .  S
C2158      C2161   1.400       .  A
C2158      C2165   1.410       .  A
N2159      H2174   1.047       .  S
N2159      H2175   1.044       .  S
C2161      C2162   1.404       .  A
C2161      H2166   1.084       .  S
C2162      C2163   1.410       .  A
C2162      N2167   1.438       .  S
C2163      C2164   1.402       .  A
C2164      C2165   1.407       .  A
C2164      H2168   1.084       .  S
C2165      N2169   1.437       .  S
N2167      H2170   1.044       .  S
N2167      H2171   1.046       .  S
N2169      H2172   1.045       .  S
N2169      H2173   1.046       .  S
C2178      C2179   1.415       .  A
C2178      C2183   1.406       .  A
C2179      C2180   1.400       .  A
C2179      N2184   1.438       .  S
C2180      C2181   1.396       .  A
C2180      H2185   1.084       .  S
C2181      C2186   1.469       .  S
C2181      C2182   1.407       .  A
C2182      C2183   1.405       .  A
C2182      N2187   1.438       .  S
C2183      H2188   1.084       .  S
N2184      H2204   1.045       .  S
N2184      H2205   1.046       .  S
C2186      C2189   1.400       .  A
C2186      C2193   1.405       .  A
N2187      H2202   1.046       .  S
N2187      H2203   1.045       .  S
C2189      C2190   1.404       .  A
C2189      H2194   1.084       .  S
C2190      C2191   1.413       .  A
C2190      N2195   1.438       .  S
C2191      C2192   1.404       .  A
C2192      C2193   1.401       .  A
C2192      H2196   1.084       .  S
C2193      N2197   1.438       .  S
N2195      H2198   1.046       .  S
N2195      H2199   1.045       .  S
N2197      H2200   1.046       .  S
N2197      H2201   1.044       .  S
C2206      C2207   1.420       .  A
C2206      C2211   1.408       .  A
C2207      C2208   1.409       .  A
C2207      N2212   1.438       .  S
C2208      C2209   1.404       .  A
C2208      H2213   1.084       .  S
C2209      C2214   1.493       .  S
C2209      C2210   1.411       .  A
C2210      C2211   1.405       .  A
C2210      N2215   1.439       .  S
C2211      H2216   1.083       .  S
N2212      H2232   1.046       .  S
C2214      C2217   1.405       .  A
C2214      C2221   1.414       .  A
N2215      H2230   1.046       .  S
N2215      H2231   1.046       .  S
C2217      C2218   1.407       .  A
C2217      H2222   1.083       .  S
C2218      C2219   1.414       .  A
C2218      N2223   1.438       .  S
C2219      C2220   1.404       .  A
C2220      C2221   1.407       .  A
C2220      H2224   1.084       .  S
C2221      N2225   1.438       .  S
N2223      H2226   1.048       .  S
N2223      H2227   1.043       .  S
N2225      H2228   1.044       .  S
N2225      H2229   1.046       .  S
C2234      C2235   1.412       .  A
C2234      C2239   1.404       .  A
C2235      C2236   1.405       .  A
C2235      N2240   1.438       .  S
C2236      C2237   1.403       .  A
C2236      H2241   1.084       .  S
C2237      C2242   1.479       .  S
C2237      C2238   1.407       .  A
C2238      C2239   1.402       .  A
C2238      N2243   1.436       .  S
C2239      H2244   1.084       .  S
N2240      H2260   1.045       .  S
C2242      C2245   1.403       .  A
C2242      C2249   1.407       .  A
N2243      H2258   1.045       .  S
N2243      H2259   1.046       .  S
C2245      C2246   1.404       .  A
C2245      H2250   1.084       .  S
C2246      C2247   1.413       .  A
C2246      N2251   1.438       .  S
C2247      C2248   1.408       .  A
C2248      C2249   1.403       .  A
C2248      H2252   1.084       .  S
C2249      N2253   1.437       .  S
N2251      H2254   1.047       .  S
N2251      H2255   1.045       .  S
N2253      H2256   1.044       .  S
N2253      H2257   1.047       .  S
C2262      C2263   1.419       .  A
C2262      C2267   1.407       .  A
C2263      C2264   1.396       .  A
C2263      N2268   1.433       .  S
C2264      C2265   1.396       .  A
C2264      H2269   1.083       .  S
C2265      C2270   1.471       .  S
C2265      C2266   1.407       .  A
C2266      C2267   1.403       .  A
C2266      N2271   1.438       .  S
C2267      H2272   1.083       .  S
N2268      H2288   1.047       .  S
N2268      H2289   1.045       .  S
C2270      C2273   1.399       .  A
C2270      C2277   1.407       .  A
N2271      H2286   1.045       .  S
N2271      H2287   1.046       .  S
C2273      C2274   1.401       .  A
C2273      H2278   1.084       .  S
C2274      C2275   1.415       .  A
C2274      N2279   1.438       .  S
C2275      C2276   1.404       .  A
C2276      C2277   1.401       .  A
C2276      H2280   1.084       .  S
C2277      N2281   1.438       .  S
N2279      H2282   1.045       .  S
N2279      H2283   1.047       .  S
N2281      H2284   1.046       .  S
N2281      H2285   1.045       .  S
C2290      N2291   1.358       .  A
C2290      N2295   1.366       .  A
C2290      C2589   1.484       .  S
N2291      C2292   1.349       .  A
C2292      N2293   1.361       .  A
C2292      C2428   1.468       .  S
N2293      C2294   1.363       .  A
C2294      N2295   1.360       .  A
C2294      C2389   1.478       .  S
C2296      N2297   1.362       .  A
C2296      N2301   1.359       .  A
C2296      C2602   1.474       .  S
N2297      C2298   1.357       .  A
C2298      N2299   1.351       .  A
C2298      C2447   1.447       .  S
N2299      C2300   1.349       .  A
C2300      N2301   1.353       .  A
C2300      C2370   1.450       .  S
C2302      N2303   1.366       .  A
C2302      N2307   1.367       .  A
C2302      C2561   1.476       .  S
N2303      C2304   1.355       .  A
C2304      N2305   1.337       .  A
C2304      C2445   1.441       .  S
N2305      C2306   1.336       .  A
C2306      N2307   1.358       .  A
C2306      C2418   1.444       .  S
C2308      N2309   1.361       .  A
C2308      N2313   1.358       .  A
C2308      C2574   1.481       .  S
N2309      C2310   1.357       .  A
C2310      N2311   1.372       .  A
C2310      C2431   1.486       .  S
N2311      C2312   1.368       .  A
C2312      N2313   1.355       .  A
C2312      C2399   1.487       .  S
C2314      N2315   1.369       .  A
C2314      N2319   1.371       .  A
C2314      C2546   1.484       .  S
N2315      C2316   1.357       .  A
C2316      N2317   1.342       .  A
C2316      C2402   1.456       .  S
N2317      C2318   1.345       .  A
C2318      N2319   1.359       .  A
C2318      C2387   1.460       .  S
C2320      N2321   1.363       .  A
C2320      N2325   1.363       .  A
C2320      C2533   1.496       .  S
N2321      C2322   1.360       .  A
C2322      N2323   1.356       .  A
C2322      C2416   1.467   1_556  S
N2323      C2324   1.357       .  A
C2324      N2325   1.356       .  A
C2324      C2373   1.463       .  S
C2326      N2327   1.365       .  A
C2326      N2331   1.363       .  A
C2326      C2505   1.478       .  S
N2327      C2328   1.358       .  A
C2328      N2329   1.350       .  A
C2328      C2419   1.457       .  S
N2329      C2330   1.347       .  A
C2330      N2331   1.352       .  A
C2330      C2446   1.451       .  S
C2332      N2333   1.359       .  A
C2332      N2337   1.362       .  A
C2332      C2518   1.472       .  S
N2333      C2334   1.352       .  A
C2334      N2335   1.360       .  A
C2334      C2400   1.465       .  S
N2335      C2336   1.360       .  A
C2336      N2337   1.357       .  A
C2336      C2430   1.471       .  S
C2338      N2339   1.364       .  A
C2338      N2343   1.358       .  A
C2338      C2477   1.481       .  S
N2339      C2340   1.361       .  A
C2340      N2341   1.371       .  A
C2340      C2388   1.485       .  S
N2341      C2342   1.364       .  A
C2342      N2343   1.356       .  A
C2342      C2401   1.485       .  S
C2344      N2345   1.366       .  A
C2344      N2349   1.364       .  A
C2344      C2490   1.472       .  S
N2345      C2346   1.361       .  A
C2346      N2347   1.336       .  A
C2346      C2417   1.450       .  S
N2347      C2348   1.340       .  A
C2348      N2349   1.355       .  A
C2348      C2372   1.443       .  S
C2350      N2351   1.361       .  A
C2350      N2355   1.370       .  A
C2350      C2449   1.489       .  S
N2351      C2352   1.354       .  A
C2352      N2353   1.347       .  A
C2352      C2448   1.456       .  S
N2353      C2354   1.350       .  A
C2354      N2355   1.366       .  A
C2354      C2371   1.459       .  S
C2356      N2357   1.366       .  A
C2356      N2361   1.362       .  A
C2356      C2462   1.479       .  S
N2357      C2358   1.359       .  A
C2358      N2359   1.361       .  A
C2358      C2429   1.476       .  S
N2359      C2360   1.360       .  A
C2360      N2361   1.354       .  A
C2360      C2390   1.474       .  S
O2362      C2370   1.266   1_554  A
O2363      C2371   1.235       .  A
O2364      C2372   1.262       .  A
O2365      C2373   1.251   1_554  A
O2366      C2372   1.262   1_554  A
O2367      C2373   1.243       .  A
O2368      C2371   1.257   1_554  A
O2369      C2370   1.257       .  A
O2374      C2387   1.268       .  A
O2374     Co2382   1.860       .  S
O2375      C2388   1.273       .  A
O2375     Co2383   2.007       .  S
O2376      C2389   1.273       .  A
O2376     Co2384   2.043       .  S
O2377      C2390   1.298       .  A
O2377     Co2385   2.079       .  S
O2378      C2390   1.268       .  A
O2378     Co2383   1.899       .  S
O2379      C2389   1.257       .  A
O2379     Co2382   1.980       .  S
O2380      C2387   1.303       .  A
O2380     Co2385   2.100       .  S
O2381      C2388   1.268       .  A
O2381     Co2384   2.014       .  S
Co2382     O2386   1.876       .  S
Co2383     O2386   1.896       .  S
Co2384     O2386   2.084       .  S
Co2385     O2386   2.279       .  S
O2391      C2399   1.266       .  A
O2391     Co2411   1.965       .  S
O2392      C2400   1.253       .  A
O2392     Co2412   1.965       .  S
O2393      C2401   1.279       .  A
O2393     Co2413   2.069       .  S
O2394     Co2414   2.122   1_455  S
O2395      C2401   1.257       .  A
O2395     Co2412   1.957       .  S
O2396      C2402   1.260       .  A
O2396     Co2411   1.869       .  S
O2397      C2400   1.263       .  A
O2397     Co2414   2.018       .  S
O2398     Co2413   2.065   1_455  S
O2403      C2416   1.291       .  A
O2404      C2417   1.275   1_554  A
O2406      C2419   1.270       .  A
O2407      C2419   1.277   1_554  A
O2408      C2418   1.260   1_554  A
O2410      C2417   1.252       .  A
Co2412     O2415   1.992       .  S
Co2413     O2415   2.051       .  S
Co2414     O2415   2.029       .  S
O2420      C2428   1.268       .  A
O2420     Co2440   1.902       .  S
O2421      C2429   1.261       .  A
O2421     Co2441   1.981       .  S
O2422      C2430   1.299       .  A
O2423      C2431   1.268       .  A
O2423     Co2443   2.017       .  S
O2424      C2430   1.273       .  A
O2424     Co2441   1.908       .  S
O2425      C2431   1.272       .  A
O2425     Co2440   2.002       .  S
O2426      C2429   1.275       .  A
O2427      C2428   1.298       .  A
O2427     Co2442   2.072       .  S
O2432      C2445   1.262   1_554  A
O2433      C2446   1.240       .  A
O2434      C2447   1.251   1_554  A
O2435      C2448   1.257       .  A
O2436      C2448   1.269   1_554  A
O2437      C2447   1.233       .  A
O2438      C2445   1.262       .  A
O2439      C2446   1.254   1_554  A
Co2440     O2444   1.890       .  S
Co2442     O2444   2.274       .  S
Co2443     O2444   2.072       .  S
C2449      C2450   1.417       .  A
C2449      C2454   1.405       .  A
C2450      C2451   1.405       .  A
C2450      N2455   1.438       .  S
C2451      C2452   1.401       .  A
C2451      H2456   1.084       .  S
C2452      C2457   1.490       .  S
C2452      C2453   1.413       .  A
C2453      C2454   1.410       .  A
C2453      N2458   1.438       .  S
C2454      H2459   1.083       .  S
N2455      H2475   1.046       .  S
N2455      H2476   1.046       .  S
C2457      C2460   1.404       .  A
C2457      C2464   1.413       .  A
N2458      H2473   1.045       .  S
N2458      H2474   1.046       .  S
C2460      C2461   1.406       .  A
C2460      H2465   1.084       .  S
C2461      C2462   1.413       .  A
C2461      N2466   1.438       .  S
C2462      C2463   1.403       .  A
C2463      C2464   1.406       .  A
C2463      H2467   1.084       .  S
C2464      N2468   1.438       .  S
N2466      H2469   1.046       .  S
N2466      H2470   1.045       .  S
N2468      H2471   1.045       .  S
N2468      H2472   1.047       .  S
C2477      C2478   1.411       .  A
C2477      C2482   1.407       .  A
C2478      C2479   1.408       .  A
C2478      N2483   1.437       .  S
C2479      C2480   1.402       .  A
C2479      H2484   1.084       .  S
C2480      C2485   1.478       .  S
C2480      C2481   1.407       .  A
C2481      C2482   1.405       .  A
C2481      N2486   1.438       .  S
C2482      H2487   1.084       .  S
N2483      H2503   1.045       .  S
N2483      H2504   1.046       .  S
C2485      C2488   1.400       .  A
C2485      C2492   1.410       .  A
N2486      H2501   1.047       .  S
N2486      H2502   1.044       .  S
C2488      C2489   1.404       .  A
C2488      H2493   1.084       .  S
C2489      C2490   1.410       .  A
C2489      N2494   1.438       .  S
C2490      C2491   1.402       .  A
C2491      C2492   1.407       .  A
C2491      H2495   1.084       .  S
C2492      N2496   1.438       .  S
N2494      H2497   1.044       .  S
N2494      H2498   1.046       .  S
N2496      H2499   1.045       .  S
N2496      H2500   1.045       .  S
C2505      C2506   1.415       .  A
C2505      C2510   1.406       .  A
C2506      C2507   1.400       .  A
C2506      N2511   1.438       .  S
C2507      C2508   1.397       .  A
C2507      H2512   1.084       .  S
C2508      C2513   1.469       .  S
C2508      C2509   1.407       .  A
C2509      C2510   1.404       .  A
C2509      N2514   1.438       .  S
C2510      H2515   1.084       .  S
N2511      H2531   1.045       .  S
N2511      H2532   1.046       .  S
C2513      C2516   1.400       .  A
C2513      C2520   1.405       .  A
N2514      H2529   1.046       .  S
N2514      H2530   1.045       .  S
C2516      C2517   1.404       .  A
C2516      H2521   1.084       .  S
C2517      C2518   1.413       .  A
C2517      N2522   1.438       .  S
C2518      C2519   1.404       .  A
C2519      C2520   1.401       .  A
C2519      H2523   1.084       .  S
C2520      N2524   1.438       .  S
N2522      H2525   1.046       .  S
N2522      H2526   1.045       .  S
N2524      H2527   1.046       .  S
N2524      H2528   1.044       .  S
C2533      C2534   1.419       .  A
C2533      C2538   1.408       .  A
C2534      C2535   1.409       .  A
C2534      N2539   1.438       .  S
C2535      C2536   1.404       .  A
C2535      H2540   1.084       .  S
C2536      C2541   1.492       .  S
C2536      C2537   1.411       .  A
C2537      C2538   1.404       .  A
C2537      N2542   1.439       .  S
C2538      H2543   1.083       .  S
N2539      H2559   1.046       .  S
C2541      C2544   1.405       .  A
C2541      C2548   1.413       .  A
N2542      H2557   1.046       .  S
N2542      H2558   1.046       .  S
C2544      C2545   1.407       .  A
C2544      H2549   1.083       .  S
C2545      C2546   1.414       .  A
C2545      N2550   1.438       .  S
C2546      C2547   1.404       .  A
C2547      C2548   1.406       .  A
C2547      H2551   1.084       .  S
C2548      N2552   1.438       .  S
N2550      H2553   1.048       .  S
N2550      H2554   1.043       .  S
N2552      H2555   1.044       .  S
N2552      H2556   1.047       .  S
C2561      C2562   1.412       .  A
C2561      C2566   1.404       .  A
C2562      C2563   1.405       .  A
C2562      N2567   1.438       .  S
C2563      C2564   1.403       .  A
C2563      H2568   1.084       .  S
C2564      C2569   1.480       .  S
C2564      C2565   1.407       .  A
C2565      C2566   1.402       .  A
C2565      N2570   1.436       .  S
C2566      H2571   1.084       .  S
N2567      H2587   1.045       .  S
C2569      C2572   1.403       .  A
C2569      C2576   1.407       .  A
N2570      H2585   1.045       .  S
N2570      H2586   1.046       .  S
C2572      C2573   1.404       .  A
C2572      H2577   1.084       .  S
C2573      C2574   1.413       .  A
C2573      N2578   1.438       .  S
C2574      C2575   1.408       .  A
C2575      C2576   1.403       .  A
C2575      H2579   1.084       .  S
C2576      N2580   1.438       .  S
N2578      H2581   1.047       .  S
N2578      H2582   1.045       .  S
N2580      H2583   1.044       .  S
N2580      H2584   1.047       .  S
C2589      C2590   1.419       .  A
C2589      C2594   1.407       .  A
C2590      C2591   1.396       .  A
C2590      N2595   1.433       .  S
C2591      C2592   1.396       .  A
C2591      H2596   1.083       .  S
C2592      C2597   1.471       .  S
C2592      C2593   1.407       .  A
C2593      C2594   1.404       .  A
C2593      N2598   1.438       .  S
C2594      H2599   1.083       .  S
N2595      H2615   1.046       .  S
N2595      H2616   1.045       .  S
C2597      C2600   1.399       .  A
C2597      C2604   1.407       .  A
N2598      H2613   1.044       .  S
N2598      H2614   1.047       .  S
C2600      C2601   1.401       .  A
C2600      H2605   1.084       .  S
C2601      C2602   1.415       .  A
C2601      N2606   1.439       .  S
C2602      C2603   1.404       .  A
C2603      C2604   1.402       .  A
C2603      H2607   1.084       .  S
C2604      N2608   1.438       .  S
N2606      H2609   1.045       .  S
N2606      H2610   1.047       .  S
N2608      H2611   1.046       .  S
N2608      H2612   1.045       .  S
