geometry optimzed in LAMMPS
_audit_creation_date              2020-12-01 
_audit_creation_method            'lammps2cif' 
_symmetry_space_group_name_H-M    'P1' 
_symmetry_Int_Tables_number       1 
_symmetry_cell_setting            triclinic 
loop_ 
_symmetry_equiv_pos_as_xyz 
  x,y,z 
_cell_length_a                    75.88294998 
_cell_length_b                    75.77344213636484 
_cell_length_c                    40.87703336355337 
_cell_angle_alpha                 83.46547793511209 
_cell_angle_beta                  91.72786442812594 
_cell_angle_gamma                 122.25743298680145 
loop_ 
_atom_site_label 
_atom_site_type_symbol 
_atom_site_fract_x 
_atom_site_fract_y 
_atom_site_fract_z 
_atom_site_charge 
N1          N  0.59937386  0.91537972  0.43064482    -0.03300
C2          C  0.60611929  0.90248532  0.44226928    -0.00700
C3          C  0.61701989  0.90961867  0.96235868    -0.23600
C4          C  0.61637177  0.92611903  0.97163817    -0.23800
C5          C  0.60488002  0.92999843  0.94856631    -0.00800
H6          H  0.62396574  0.90188619  0.97603348     0.13000
H7          H  0.62293819  0.93395523  0.99341739     0.13000
N8          N  0.35193009  0.87414014  0.44128820    -0.03300
C9          C  0.33239147  0.85650735  0.44525431    -0.00700
C10         C  0.32355369  0.85117452  0.41507733    -0.23600
C11         C  0.33789742  0.86574659  0.39156815    -0.23800
C12         C  0.35514488  0.87952318  0.40803862    -0.00800
H13         H  0.30804111  0.83825743  0.41074204     0.13000
H14         H  0.33613326  0.86603585  0.36517284     0.13000
O15         O  0.53684994  0.01177006  0.22970625    -0.80000
O16         O  0.55619422  0.06084957  0.09434136    -0.80000
O17         O  0.55568727  0.01411067  0.12458334    -0.80000
O18         O  0.57289879  0.08471629  0.18566691    -0.79900
O19         O  0.53765320  0.02018956  0.08676487    -0.80100
O20         O  0.56515419  0.05428648  0.21239340    -0.80000
O21         O  0.57537866  0.06345996  0.13755425    -0.80000
O22         O  0.55499465  0.00998203  0.19182637    -0.80000
C23         C  0.54941621  0.00675248  0.22175450     1.09700
C24         C  0.57396157  0.06691372  0.10675734     1.09600
C25         C  0.55259027  0.01768162  0.09467741     1.09700
C26         C  0.57668132  0.07470027  0.20869058     1.09600
O27         O  0.52803433  0.04015074  0.24278630    -0.80000
O28         O  0.49942776  0.01057830  0.11879735    -0.80100
O29         O  0.50908681  0.98746925  0.19244089    -0.80000
O30         O  0.54769329  0.07812490  0.13444191    -0.80000
O31         O  0.51697201  0.05224260  0.12482520    -0.80000
O32         O  0.50338785  0.01268662  0.19896311    -0.80000
O33         O  0.53130972  0.06012914  0.19670643    -0.79900
O34         O  0.51043413  0.98889271  0.12508326    -0.80000
Co35       Co  0.53333442  0.03338089  0.20263744     1.51500
Co36       Co  0.52758421  0.03567760  0.10930271     1.51700
Co37       Co  0.53316260  0.00201940  0.15847308     1.51600
Co38       Co  0.55344915  0.05998258  0.16712055     1.51500
O39         O  0.53603907  0.03052278  0.15525129    -1.41900
C40         C  0.52623221  0.05462256  0.22785525     1.09600
C41         C  0.49654707  0.99281944  0.11579301     1.09700
C42         C  0.49733062  0.99339532  0.20201380     1.09700
C43         C  0.52976332  0.07176381  0.12340599     1.09600
N44         N  0.52102327  0.18953393  0.39332967    -0.03300
C45         C  0.52555774  0.20935759  0.38409631    -0.00700
C46         C  0.52554832  0.21290240  0.35010654    -0.23600
C47         C  0.52071011  0.19470414  0.33806512    -0.23800
C48         C  0.51809438  0.18069268  0.36502809    -0.00800
H49         H  0.52760603  0.22681849  0.33569828     0.13000
H50         H  0.51919666  0.19194895  0.31243451     0.13000
N51         N  0.72235492  0.19533393  0.41294416    -0.03300
C52         C  0.74077602  0.21357342  0.41643754    -0.00700
C53         C  0.75052848  0.22306351  0.38573952    -0.23600
C54         C  0.73773728  0.21049586  0.36280896    -0.23800
C55         C  0.72042625  0.19374140  0.38001707    -0.00800
H56         H  0.76535218  0.23771784  0.38048778     0.13000
H57         H  0.74040085  0.21369301  0.33634245     0.13000
O58         O  0.05116593  0.53972513  0.43741160    -0.80000
O59         O  0.01447873  0.52138015  0.30231708    -0.80000
O60         O  0.08246925  0.56370445  0.34385934    -0.80000
O61         O  0.00641359  0.53576156  0.40285604    -0.79900
O62         O  0.05282811  0.55056476  0.31762544    -0.80100
O63         O  0.00889865  0.51699910  0.44553222    -0.80000
O64         O  0.00921618  0.53787274  0.33688383    -0.80000
O65         O  0.05531142  0.55989069  0.39110414    -0.80000
C66         C  0.05696550  0.55772493  0.42208993     1.09700
C67         C  0.00925085  0.53407244  0.30771652     1.09600
C68         C  0.07210840  0.56536958  0.32010647     1.09700
C69         C  0.00430980  0.53027228  0.43342097     1.09600
O70         O  0.00722621  0.48159331  0.42126303    -0.80000
O71         O  0.04627296  0.51597849  0.29344098    -0.80100
O72         O  0.07470249  0.53620168  0.39947801    -0.80000
O73         O  0.98827752  0.49168354  0.34274134    -0.80000
O74         O  0.01453578  0.48712362  0.33777075    -0.80000
O75         O  0.05043482  0.50385413  0.41638917    -0.80000
O76         O  0.98396187  0.49001274  0.40888853    -0.79900
O77         O  0.06426005  0.52230893  0.33891851    -0.80000
Co78       Co  0.02940572  0.51063445  0.42685462     1.51500
Co79       Co  0.03432567  0.51793401  0.33166228     1.51700
Co80       Co  0.05750372  0.54063687  0.36500010     1.51600
Co81       Co  0.99884474  0.51454609  0.37294126     1.51500
O82         O  0.02749863  0.51898135  0.37813001    -1.41900
C83         C  0.98854606  0.47691384  0.42198155     1.09600
C84         C  0.06198272  0.51811169  0.30858600     1.09700
C85         C  0.06948851  0.51849849  0.41485390     1.09700
C86         C  0.99534983  0.48073529  0.33454590     1.09600
N87         N  0.20001596  0.51838453  0.11102503    -0.03300
C88         C  0.21833557  0.51918947  0.10977907    -0.00700
C89         C  0.22476644  0.51711386  0.14114701    -0.23600
C90         C  0.21008025  0.51505867  0.16263398    -0.23800
C91         C  0.19512044  0.51598898  0.14369569    -0.00800
H92         H  0.23870946  0.51713273  0.14765160     0.13000
H93         H  0.21053383  0.51355565  0.18924840     0.13000
N94         N  0.86529961  0.33905247  0.13477623    -0.03300
C95         C  0.85023743  0.31833726  0.13405390    -0.00700
C96         C  0.84472944  0.30826745  0.16591530    -0.23600
C97         C  0.85644623  0.32314769  0.18675455    -0.23800
C98         C  0.86893844  0.34185658  0.16715365    -0.00800
H99         H  0.83282000  0.29200136  0.17337815     0.13000
H100        H  0.85583508  0.32063195  0.21340098     0.13000
N101        N  0.89339428  0.56401054  0.09137018    -0.03300
C102        C  0.87446482  0.56159926  0.09589077    -0.00700
C103        C  0.87178574  0.56361024  0.12836188    -0.23600
C104        C  0.88928853  0.56709733  0.14439178    -0.23800
C105        C  0.90213736  0.56702175  0.12136642    -0.00800
H106        H  0.85847509  0.56272754  0.13926887     0.13000
H107        H  0.89201235  0.56871210  0.17033308     0.13000
N108        N  0.15498539  0.71563296  0.06844916    -0.03300
C109        C  0.16797958  0.73682289  0.06214932    -0.00700
C110        C  0.16411862  0.74658284  0.08517348    -0.23600
C111        C  0.14866177  0.73097353  0.10654371    -0.23800
C112        C  0.14347933  0.71220930  0.09591543    -0.00800
H113        H  0.17293012  0.76312584  0.08824993     0.13000
H114        H  0.14313411  0.73304054  0.12902862     0.13000
O115        O  0.53685426  0.51996717  0.10101669    -0.80000
O116        O  0.51951820  0.53458738  0.23587634    -0.80000
O117        O  0.54015886  0.49112326  0.19446383    -0.80000
O118        O  0.49614520  0.52562925  0.13250797    -0.79900
O119        O  0.52331333  0.50255927  0.21942145    -0.80100
O120        O  0.52021009  0.54397420  0.09273801    -0.80000
O121        O  0.49627751  0.52127284  0.19930810    -0.80000
O122        O  0.51840681  0.49781528  0.14451354    -0.80000
C123        C  0.52254759  0.50170849  0.11366318     1.09700
C124        C  0.50061097  0.52500076  0.22863631     1.09600
C125        C  0.52752139  0.48823841  0.21712912     1.09700
C126        C  0.50107274  0.53165971  0.10227972     1.09600
O127        O  0.55651146  0.57737109  0.12267916    -0.80000
O128        O  0.55404522  0.53522279  0.24840345    -0.80100
O129        O  0.56284701  0.52038796  0.14158467    -0.80000
O130        O  0.52849552  0.56662751  0.19671593    -0.80000
O131        O  0.55742179  0.56629916  0.20291049    -0.80000
O132        O  0.57419850  0.55354876  0.12894233    -0.80000
O133        O  0.52484835  0.57046197  0.13015478    -0.79900
O134        O  0.56691826  0.53210299  0.20333221    -0.80000
Co135      Co  0.54673528  0.54843363  0.11444403     1.43100
Co136      Co  0.54133560  0.53545285  0.20824357     1.51700
Co137      Co  0.54073488  0.51525214  0.17402790     1.51600
Co138      Co  0.51242653  0.54507101  0.16476246     1.51500
O139        O  0.53432968  0.53763464  0.16102844    -1.41900
C140        C  0.54361830  0.58309079  0.11956973     1.09600
C141        C  0.56877302  0.53575265  0.23391746     1.09700
C142        C  0.57736540  0.53870638  0.13027092     1.09700
C143        C  0.54742840  0.57518508  0.20551679     1.09600
N144        N  0.47656822  0.34545035  0.44293152    -0.03300
C145        C  0.47217052  0.32540711  0.44765451    -0.00700
C146        C  0.45859008  0.31435073  0.47456258    -0.23600
C147        C  0.45457988  0.32793372  0.48707831    -0.23800
C148        C  0.46582079  0.34692189  0.46739678    -0.00800
H149        H  0.45330863  0.29850968  0.48532378     0.13000
H150        H  0.44506829  0.32412729  0.00878783     0.13000
N151        N  0.36776865  0.53556786  0.41545893    -0.03300
C152        C  0.35119286  0.53792065  0.41716669    -0.00700
C153        C  0.34514576  0.54078294  0.38568668    -0.23600
C154        C  0.35842436  0.54057384  0.36400195    -0.23800
C155        C  0.37216835  0.53746555  0.38274894    -0.00800
H156        H  0.33237516  0.54284546  0.37913686     0.13000
H157        H  0.35815912  0.54258161  0.33738594     0.13000
N158        N  0.71797499  0.56505388  0.44655077    -0.03300
C159        C  0.73888745  0.57321960  0.44829406    -0.00700
C160        C  0.74835897  0.58128991  0.41718034    -0.23600
C161        C  0.73301484  0.57787711  0.39559224    -0.23800
C162        C  0.71456772  0.56797905  0.41402052    -0.00800
H163        H  0.76459659  0.58793235  0.41057072     0.13000
H164        H  0.73506698  0.58205550  0.36915907     0.13000
N165        N  0.57886263  0.71886091  0.39241320    -0.03300
C166        C  0.57735258  0.73566098  0.38173211    -0.00700
C167        C  0.57951884  0.73959042  0.34773994    -0.23600
C168        C  0.58243863  0.72483961  0.33700593    -0.23800
C169        C  0.58190574  0.71232240  0.36471688    -0.00800
H170        H  0.57925439  0.75206023  0.33238701     0.13000
H171        H  0.58397910  0.72291568  0.31162046     0.13000
C172        C  0.38953775  0.53707112  0.36800942    -0.03000
C173        C  0.40170736  0.55224893  0.34179994    -0.05600
C174        C  0.41609739  0.55049324  0.32426919    -0.20700
C175        C  0.41867727  0.53354136  0.33252728     0.25000
C176        C  0.40689674  0.51859488  0.35940626    -0.18300
C177        C  0.39243847  0.52037857  0.37699796    -0.08200
C178        C  0.43250375  0.53122831  0.31081832    -0.18500
C179        C  0.44165309  0.52046384  0.32025654    -0.23300
C180        C  0.45561275  0.51921911  0.29723383     0.27100
C181        C  0.47397099  0.52080113  0.30864911    -0.20100
C182        C  0.48832818  0.52180002  0.28657234    -0.09700
C183        C  0.48426653  0.52066209  0.25283416    -0.10300
C184        C  0.46522032  0.51764856  0.24186117    -0.03200
C185        C  0.45109053  0.51705814  0.26378488    -0.18300
H186        H  0.39966618  0.56521306  0.33431981     0.10800
H187        H  0.42492115  0.56218648  0.30365958     0.10800
H188        H  0.40807084  0.50502593  0.36592391     0.10500
H189        H  0.38276939  0.50813255  0.39642783     0.11600
H190        H  0.43594169  0.53951426  0.28607129     0.11700
H191        H  0.44021450  0.51385052  0.34574499     0.13600
H192        H  0.47764287  0.52223501  0.33439758     0.10100
H193        H  0.50285544  0.52405150  0.29571842     0.12200
H194        H  0.46164132  0.51671596  0.21602739     0.08800
H195        H  0.43676859  0.51524006  0.25446488     0.11600
C196        C  0.48399328  0.52603485  0.07891170    -0.03000
C197        C  0.46391929  0.50839955  0.08737161    -0.05600
C198        C  0.44688594  0.50479480  0.06839730    -0.20700
C199        C  0.44938854  0.51895593  0.04094889     0.25000
C200        C  0.46965084  0.53605721  0.03146647    -0.18300
C201        C  0.48678738  0.53950624  0.05022410    -0.08200
C202        C  0.43053846  0.51541230  0.02303212    -0.18500
C203        C  0.42907530  0.53122083  0.00734065    -0.23300
C204        C  0.41050080  0.52831958  0.98916960     0.27100
C205        C  0.41648200  0.55616214  0.46282300    -0.20100
C206        C  0.40072580  0.55557212  0.44330731    -0.09700
C207        C  0.38171049  0.53660940  0.44104184    -0.10300
C208        C  0.37374927  0.50792496  0.97556422    -0.03200
C209        C  0.39033644  0.51010436  0.99471850    -0.18300
H210        H  0.46128065  0.49767517  0.10927034     0.10800
H211        H  0.43154667  0.49132927  0.07596427     0.10800
H212        H  0.47231063  0.54689987  0.00976719     0.10500
H213        H  0.50204424  0.55324302  0.04313827     0.11600
H214        H  0.41732686  0.49936117  0.02399505     0.11700
H215        H  0.44235945  0.54721581  0.00702540     0.13600
H216        H  0.43112936  0.57104529  0.46333529     0.10100
H217        H  0.40366697  0.56979821  0.42871536     0.12200
H218        H  0.35859210  0.49347972  0.97913828     0.08800
H219        H  0.38729307  0.49745163  0.01349079     0.11600
C220        C  0.58098420  0.69263633  0.36213615    -0.03000
C221        C  0.56187073  0.67345470  0.36736702    -0.05600
C222        C  0.55879336  0.65592334  0.35379021    -0.20700
C223        C  0.57475677  0.65736955  0.33477210     0.25000
C224        C  0.59463123  0.67600455  0.33295142    -0.18300
C225        C  0.59759419  0.69354830  0.34623116    -0.08200
C226        C  0.56920643  0.64011427  0.31445876    -0.18500
C227        C  0.58100927  0.64177053  0.28885399    -0.23300
C228        C  0.57278172  0.62570113  0.26561312     0.27100
C229        C  0.58571703  0.61984417  0.25319305    -0.20100
C230        C  0.57778063  0.60399825  0.23236602    -0.09700
C231        C  0.55688554  0.59412727  0.22300048    -0.10300
C232        C  0.54439558  0.60101936  0.23382225    -0.03200
C233        C  0.55223350  0.61658173  0.25501409    -0.18300
H234        H  0.54879772  0.67255947  0.37923639     0.10800
H235        H  0.54341157  0.64169886  0.35600633     0.10800
H236        H  0.60764606  0.67764922  0.31979389     0.10500
H237        H  0.61245686  0.70830713  0.34199434     0.11600
H238        H  0.55374906  0.62599859  0.31882915     0.11700
H239        H  0.59677257  0.65514971  0.28400356     0.13600
H240        H  0.60173251  0.62699753  0.26056746     0.10100
H241        H  0.58782139  0.59907367  0.22436709     0.12200
H242        H  0.52828630  0.59382503  0.22697027     0.08800
H243        H  0.54216358  0.62139956  0.26327842     0.11600
C244        C  0.54981651  0.60345418  0.09982912    -0.03000
C245        C  0.57081886  0.61811550  0.09031940    -0.05600
C246        C  0.57641759  0.63578350  0.06771972    -0.20700
C247        C  0.56123769  0.63934050  0.05385026     0.25000
C248        C  0.54021813  0.62501267  0.06426478    -0.18300
C249        C  0.53463412  0.60737258  0.08708713    -0.08200
C250        C  0.56804309  0.65718485  0.02701143    -0.18500
C251        C  0.55575639  0.66381520  0.01351778    -0.23300
C252        C  0.56197345  0.67999618  0.98410314     0.27100
C253        C  0.54890667  0.68757785  0.97525202    -0.20100
C254        C  0.55916664  0.70374467  0.44582683    -0.09700
C255        C  0.57615795  0.70868944  0.42557347    -0.10300
C256        C  0.58934306  0.70173347  0.43683968    -0.03200
C257        C  0.58501664  0.68911008  0.46694335    -0.18300
H258        H  0.58292667  0.61559934  0.09956368     0.10800
H259        H  0.59270967  0.64642689  0.06029864     0.10800
H260        H  0.52785614  0.62674663  0.05408783     0.10500
H261        H  0.51827584  0.59627006  0.09356287     0.11600
H262        H  0.58403140  0.66496605  0.01787061     0.11700
H263        H  0.54019217  0.65698532  0.02397936     0.13600
H264        H  0.53526249  0.68261652  0.99052953     0.10100
H265        H  0.54866692  0.70875682  0.43753621     0.12200
H266        H  0.60263059  0.70549899  0.42168981     0.08800
H267        H  0.59505278  0.68329417  0.47358493     0.11600
C268        C  0.69444246  0.56187511  0.39870272    -0.03000
C269        C  0.68148835  0.56815612  0.40965364    -0.05600
C270        C  0.66420171  0.56489766  0.39155531    -0.20700
C271        C  0.65979516  0.55563479  0.36201723     0.25000
C272        C  0.67234371  0.54859856  0.35194702    -0.18300
C273        C  0.68951263  0.55181104  0.37000055    -0.08200
C274        C  0.64187297  0.55322869  0.34261281    -0.18500
C275        C  0.64075123  0.55210541  0.30976005    -0.23300
C276        C  0.62268483  0.54905132  0.29000471     0.27100
C277        C  0.62028071  0.54202674  0.25878498    -0.20100
C278        C  0.60306669  0.53813676  0.23994813    -0.09700
C279        C  0.58792628  0.54124370  0.25201667    -0.10300
C280        C  0.59073926  0.54900919  0.28266489    -0.03200
C281        C  0.60792460  0.55298378  0.30134269    -0.18300
H282        H  0.68517527  0.57628659  0.43137955     0.10800
H283        H  0.65462662  0.57023336  0.40007724     0.10800
H284        H  0.66901249  0.54059406  0.33017640     0.10500
H285        H  0.69925134  0.54674362  0.36118354     0.11600
H286        H  0.62944879  0.55261022  0.35611090     0.11700
H287        H  0.65345469  0.55303398  0.29653103     0.13600
H288        H  0.63154918  0.53912011  0.24921507     0.10100
H289        H  0.60136366  0.53225635  0.21636723     0.12200
H290        H  0.57953554  0.55194016  0.29242028     0.08800
H291        H  0.60948560  0.55920172  0.32449712     0.11600
C292        C  0.59731192  0.54255635  0.11681090    -0.03000
C293        C  0.61399480  0.56312949  0.10695830    -0.05600
C294        C  0.63200596  0.56674924  0.09133694    -0.20700
C295        C  0.63378711  0.54995036  0.08469735     0.25000
C296        C  0.61746651  0.52934210  0.09592362    -0.18300
C297        C  0.59946535  0.52572346  0.11175953    -0.08200
C298        C  0.65261727  0.55477390  0.06529637    -0.18500
C299        C  0.65336832  0.54084635  0.04832231    -0.23300
C300        C  0.67079636  0.54625556  0.02477420     0.27100
C301        C  0.66707974  0.53201861  0.00220496    -0.20100
C302        C  0.68204160  0.53697755  0.97768586    -0.09700
C303        C  0.70275407  0.55726165  0.47342837    -0.10300
C304        C  0.70613096  0.56968638  0.49873834    -0.03200
C305        C  0.68995041  0.56415525  0.52138537    -0.18300
H306        H  0.61297211  0.57648086  0.11070151     0.10800
H307        H  0.64435834  0.58279710  0.08345115     0.10800
H308        H  0.61838450  0.51592373  0.09243833     0.10500
H309        H  0.58698716  0.50967939  0.11927801     0.11600
H310        H  0.66556939  0.57098342  0.06267940     0.11700
H311        H  0.63980326  0.52499925  0.04934699     0.13600
H312        H  0.65221913  0.51724547  0.00280466     0.10100
H313        H  0.67844661  0.52604549  0.95991566     0.12200
H314        H  0.72101475  0.58421513  0.49995759     0.08800
H315        H  0.69307709  0.57430488  0.54022544     0.11600
C316        C  0.51778162  0.46881931  0.24087981    -0.03000
C317        C  0.50278543  0.46497564  0.26470967    -0.05600
C318        C  0.49506378  0.44771010  0.28902450    -0.20700
C319        C  0.50233840  0.43404137  0.29044836     0.25000
C320        C  0.51683823  0.43748563  0.26595160    -0.18300
C321        C  0.52444623  0.45466274  0.24147353    -0.08200
C322        C  0.49422974  0.41629224  0.31750114    -0.18500
C323        C  0.50473264  0.40712006  0.32879359    -0.23300
C324        C  0.49701325  0.39011734  0.35700009     0.27100
C325        C  0.51148557  0.38754433  0.37581698    -0.20100
C326        C  0.50488522  0.37237719  0.40339727    -0.09700
C327        C  0.48362172  0.35922495  0.41236984    -0.10300
C328        C  0.46909511  0.36124338  0.39288643    -0.03200
C329        C  0.47565094  0.37644567  0.36547314    -0.18300
H330        H  0.49726351  0.47551942  0.26493940     0.10800
H331        H  0.48370826  0.44530976  0.30728844     0.10800
H332        H  0.52231643  0.42694250  0.26548438     0.10500
H333        H  0.53591051  0.45710275  0.22340620     0.11600
H334        H  0.47967198  0.41160541  0.32991363     0.11700
H335        H  0.52021802  0.41316618  0.31854416     0.13600
H336        H  0.52802507  0.39780284  0.36982737     0.10100
H337        H  0.51647536  0.37174047  0.41854156     0.12200
H338        H  0.45261711  0.35127217  0.39950263     0.08800
H339        H  0.46394372  0.37742587  0.35108226     0.11600
C340        C  0.46840958  0.36665739  0.47613303    -0.03000
C341        C  0.45103966  0.36520272  0.99619486    -0.05600
C342        C  0.45394277  0.38174452  0.01257630    -0.20700
C343        C  0.47355521  0.40044853  0.01187915     0.25000
C344        C  0.49008902  0.40253224  0.99345869    -0.18300
C345        C  0.48788724  0.38562718  0.47186595    -0.08200
C346        C  0.47679587  0.41654694  0.03314318    -0.18500
C347        C  0.49201588  0.43694111  0.02700339    -0.23300
C348        C  0.49712866  0.45289043  0.04973895     0.27100
C349        C  0.50828002  0.47411894  0.03684394    -0.20100
C350        C  0.51561598  0.48985732  0.05759754    -0.09700
C351        C  0.51218065  0.48476448  0.09193187    -0.10300
C352        C  0.50035675  0.46349248  0.10490688    -0.03200
C353        C  0.49293221  0.44766962  0.08401808    -0.18300
H354        H  0.43713659  0.35152604  0.49736137     0.10800
H355        H  0.44097936  0.37968669  0.02666784     0.10800
H356        H  0.50561264  0.41642163  0.99313885     0.10500
H357        H  0.50081530  0.38659039  0.45952885     0.11600
H358        H  0.46626009  0.41135197  0.05441967     0.11700
H359        H  0.50120278  0.44238996  0.00407471     0.13600
H360        H  0.51177502  0.47857746  0.01060191     0.10100
H361        H  0.52455637  0.50608442  0.04673205     0.12200
H362        H  0.49759463  0.45908028  0.13125724     0.08800
H363        H  0.48480720  0.43148084  0.09497734     0.11600
C364        C  0.85862032  0.55864057  0.07120432    -0.03000
C365        C  0.86385184  0.57236716  0.04205760    -0.05600
C366        C  0.84826481  0.57369719  0.02456781    -0.20700
C367        C  0.82748704  0.56006543  0.53393943     0.25000
C368        C  0.82165116  0.54326223  0.55879635    -0.18300
C369        C  0.83745356  0.54515658  0.08095295    -0.08200
C370        C  0.81205775  0.56439961  0.51749546    -0.18500
C371        C  0.79208590  0.55563325  0.52848789    -0.23300
C372        C  0.77760865  0.56134056  0.51239345     0.27100
C373        C  0.75614151  0.54607527  0.51216969    -0.20100
C374        C  0.74261818  0.55047977  0.49407406    -0.09700
C375        C  0.75034505  0.57035571  0.47637181    -0.10300
C376        C  0.77137446  0.58617465  0.47946403    -0.03200
C377        C  0.78487258  0.58173694  0.49715206    -0.18300
H378        H  0.88004618  0.58315573  0.03421751     0.10800
H379        H  0.85283574  0.58515757  0.00302425     0.10800
H380        H  0.80548173  0.53165201  0.56539635     0.10500
H381        H  0.83297670  0.53437108  0.10336280     0.11600
H382        H  0.81774294  0.57604205  0.49596240     0.11700
H383        H  0.78575126  0.54359282  0.54937999     0.13600
H384        H  0.75006524  0.53034507  0.52433590     0.10100
H385        H  0.72659150  0.53790048  0.49177835     0.12200
H386        H  0.77771914  0.60169289  0.46622654     0.08800
H387        H  0.80109683  0.59415681  0.49808304     0.11600
C388        C  0.33992617  0.53734114  0.44689763    -0.03000
C389        C  0.33231204  0.52069332  0.47235443    -0.05600
C390        C  0.30465786  0.49894343  0.00270488    -0.20700
C391        C  0.30893787  0.53034952  0.49314052     0.25000
C392        C  0.31763636  0.54781535  0.46890299    -0.18300
C393        C  0.33285052  0.55119262  0.44614148    -0.08200
C394        C  0.29138903  0.52510945  0.51627616    -0.18500
C395        C  0.27812155  0.53189979  0.51054836    -0.23300
C396        C  0.26033718  0.52629872  0.53344107     0.27100
C397        C  0.25205905  0.53919014  0.53156006    -0.20100
C398        C  0.23624082  0.53514053  0.55395573    -0.09700
C399        C  0.23032849  0.52125600  0.08030136    -0.10300
C400        C  0.22916274  0.50338333  0.07115004    -0.03200
C401        C  0.24477312  0.50541536  0.05067376    -0.18300
H402        H  0.31810832  0.48506737  0.97795141     0.10800
H403        H  0.29322373  0.48405848  0.01623839     0.10800
H404        H  0.31258050  0.55878789  0.46696665     0.10500
H405        H  0.33846807  0.56422799  0.42683305     0.11600
H406        H  0.27824580  0.50110301  0.04252823     0.11700
H407        H  0.28036619  0.54227693  0.48833940     0.13600
H408        H  0.25844600  0.55295249  0.51352252     0.10100
H409        H  0.23128160  0.54616250  0.55326387     0.12200
H410        H  0.21681906  0.48785770  0.08144718     0.08800
H411        H  0.24362286  0.49132430  0.04452044     0.11600
C412        C  0.92130579  0.56735337  0.13040954    -0.03000
C413        C  0.92360989  0.55081101  0.12442076    -0.05600
C414        C  0.93974198  0.54914182  0.13861465    -0.20700
C415        C  0.95368811  0.56385899  0.15923653     0.25000
C416        C  0.95229024  0.58134055  0.16293247    -0.18300
C417        C  0.93605598  0.58286024  0.14903920    -0.08200
C418        C  0.96819056  0.55949570  0.17848891    -0.18500
C419        C  0.97538212  0.56689331  0.20766022    -0.23300
C420        C  0.98614179  0.55966523  0.23137723     0.27100
C421        C  0.99304235  0.54655729  0.22391968    -0.20100
C422        C  0.00114151  0.53867477  0.24850349    -0.09700
C423        C  0.00258778  0.54380199  0.28085374    -0.10300
C424        C  0.99661030  0.55763581  0.28783497    -0.03200
C425        C  0.98853245  0.56546841  0.26339629    -0.18300
H426        H  0.91222919  0.53849871  0.11048322     0.10800
H427        H  0.94057704  0.53565602  0.13503303     0.10800
H428        H  0.96328066  0.59360279  0.17724703     0.10500
H429        H  0.93460693  0.59583402  0.15368820     0.11600
H430        H  0.97082363  0.54798417  0.17019962     0.11700
H431        H  0.97142731  0.57735583  0.21649829     0.13600
H432        H  0.99202140  0.54204464  0.19947660     0.10100
H433        H  0.00583466  0.52819837  0.24235194     0.12200
H434        H  0.99767511  0.56203205  0.31245330     0.08800
H435        H  0.98353444  0.57564896  0.26988272     0.11600
C436        C  0.99444940  0.53804475  0.45365600    -0.03000
C437        C  0.99467043  0.55629271  0.44144632    -0.05600
C438        C  0.98300465  0.56236989  0.45726860    -0.20700
C439        C  0.97040556  0.55015051  0.48528686     0.25000
C440        C  0.97059207  0.53221147  0.49830392    -0.18300
C441        C  0.98265598  0.52629887  0.48273710    -0.08200
C442        C  0.95786706  0.55705877  0.50070050    -0.18500
C443        C  0.93846092  0.54363841  0.51400715    -0.23300
C444        C  0.92579939  0.55046876  0.52964086     0.27100
C445        C  0.90411647  0.53636200  0.53458897    -0.20100
C446        C  0.89365333  0.54368556  0.04854253    -0.09700
C447        C  0.90185966  0.55979389  0.56793947    -0.10300
C448        C  0.92316362  0.57459689  0.56082356    -0.03200
C449        C  0.93505409  0.56997817  0.54217482    -0.18300
H450        H  0.00358104  0.56570496  0.41911204     0.10800
H451        H  0.98334387  0.57637692  0.44698159     0.10800
H452        H  0.96142782  0.52278098  0.52042363     0.10500
H453        H  0.98208327  0.51211673  0.49263673     0.11600
H454        H  0.96438468  0.57384299  0.49869913     0.11700
H455        H  0.93137903  0.52691543  0.51295138     0.13600
H456        H  0.89841373  0.52469086  0.01931927     0.10100
H457        H  0.87781553  0.53116267  0.05575675     0.12200
H458        H  0.93093629  0.58910203  0.57204663     0.08800
H459        H  0.95167350  0.58121999  0.53959642     0.11600
C460        C  0.98143094  0.46197849  0.31711898    -0.03000
C461        C  0.98969918  0.45352768  0.29813585    -0.05600
C462        C  0.97688688  0.43798792  0.27783900    -0.20700
C463        C  0.95553104  0.43056683  0.27576572     0.25000
C464        C  0.94708287  0.43837837  0.29588490    -0.18300
C465        C  0.95988311  0.45391395  0.31614089    -0.08200
C466        C  0.94265586  0.41449162  0.25287033    -0.18500
C467        C  0.92434285  0.41096813  0.24098565    -0.23300
C468        C  0.91101943  0.39447192  0.21900423     0.27100
C469        C  0.88964938  0.38708642  0.21819532    -0.20100
C470        C  0.87619968  0.37071214  0.19981091    -0.09700
C471        C  0.88386233  0.36168491  0.18103211    -0.10300
C472        C  0.90533768  0.36966605  0.18028302    -0.03200
C473        C  0.91882895  0.38590376  0.19912266    -0.18300
H474        H  0.00622365  0.45946041  0.29801497     0.10800
H475        H  0.98383092  0.43212933  0.26298919     0.10800
H476        H  0.93061811  0.43259801  0.29617694     0.10500
H477        H  0.95293187  0.45994085  0.33059188     0.11600
H478        H  0.94877959  0.40544523  0.24535417     0.11700
H479        H  0.91828087  0.42008377  0.24842568     0.13600
H480        H  0.88316862  0.39347124  0.23287512     0.10100
H481        H  0.85964312  0.36462317  0.20101138     0.12200
H482        H  0.91151841  0.36274137  0.16622881     0.08800
H483        H  0.93525359  0.39152120  0.19820032     0.11600
C484        C  0.97247647  0.45711614  0.44161372    -0.03000
C485        C  0.97783491  0.44329077  0.45771185    -0.05600
C486        C  0.96362277  0.42602720  0.47952341    -0.20700
C487        C  0.94372873  0.42215925  0.48609324     0.25000
C488        C  0.93800483  0.43549703  0.46904540    -0.18300
C489        C  0.95224691  0.45278853  0.44709014    -0.08200
C490        C  0.92964446  0.40411154  0.51087959    -0.18500
C491        C  0.91372487  0.40260754  0.52756904    -0.23300
C492        C  0.90120253  0.38554042  0.55467788     0.27100
C493        C  0.89152561  0.38943736  0.57921059    -0.20100
C494        C  0.88039403  0.37420323  0.60584549    -0.09700
C495        C  0.87628369  0.35469906  0.10705729    -0.10300
C496        C  0.88517633  0.35051512  0.08177205    -0.03200
C497        C  0.89872039  0.36563234  0.55670623    -0.18300
H498        H  0.99325606  0.44610279  0.45415530     0.10800
H499        H  0.96842264  0.41594818  0.49201318     0.10800
H500        H  0.92262109  0.43272074  0.47258186     0.10500
H501        H  0.94757222  0.46307265  0.43504056     0.11600
H502        H  0.93370991  0.39246734  0.51744235     0.11700
H503        H  0.91075973  0.41517558  0.52324156     0.13600
H504        H  0.89292158  0.40448838  0.57809966     0.10100
H505        H  0.87144517  0.37781634  0.12411341     0.12200
H506        H  0.88352063  0.33536337  0.08268356     0.08800
H507        H  0.90532359  0.36171856  0.53781274     0.11600
C508        C  0.07770179  0.51610589  0.29154078    -0.03000
C509        C  0.09481411  0.51760821  0.30829984    -0.05600
C510        C  0.11038081  0.51722168  0.29144440    -0.20700
C511        C  0.10936748  0.51564948  0.25743339     0.25000
C512        C  0.09213104  0.51393992  0.24073570    -0.18300
C513        C  0.07651245  0.51418382  0.25760188    -0.08200
C514        C  0.12597371  0.51480629  0.24056034    -0.18500
C515        C  0.13061297  0.52014381  0.20791104    -0.23300
C516        C  0.14672965  0.51847738  0.19117678     0.27100
C517        C  0.15681725  0.53163167  0.16195660    -0.20100
C518        C  0.17214577  0.53049949  0.14577989    -0.09700
C519        C  0.17742434  0.51593848  0.15828926    -0.10300
C520        C  0.16698646  0.50244854  0.18704943    -0.03200
C521        C  0.15174168  0.50360242  0.20323965    -0.18300
H522        H  0.09627422  0.51925440  0.33438338     0.10800
H523        H  0.12338732  0.51837329  0.30497059     0.10800
H524        H  0.09042895  0.51207003  0.21476997     0.10500
H525        H  0.06359062  0.51309559  0.24391104     0.11600
H526        H  0.13513486  0.51024231  0.25593302     0.11700
H527        H  0.12297420  0.52674513  0.19297411     0.13600
H528        H  0.15314544  0.54312904  0.15202512     0.10100
H529        H  0.18028067  0.54141464  0.12409370     0.12200
H530        H  0.17072065  0.49102187  0.19712869     0.08800
H531        H  0.14381273  0.49269281  0.22499665     0.11600
C532        C  0.08516237  0.51562128  0.43355680    -0.03000
C533        C  0.07865976  0.49780574  0.45652187    -0.05600
C534        C  0.09297305  0.49612210  0.47698593    -0.20700
C535        C  0.11424195  0.51213538  0.47519643     0.25000
C536        C  0.12093759  0.52965092  0.45126029    -0.18300
C537        C  0.10654790  0.53138309  0.43084629    -0.08200
C538        C  0.12852283  0.50969203  0.49890412    -0.18500
C539        C  0.14821676  0.52516374  0.50465643    -0.23300
C540        C  0.16165957  0.52271754  0.53016386     0.27100
C541        C  0.17871318  0.54087369  0.54134511    -0.20100
C542        C  0.19131114  0.53939772  0.56594782    -0.09700
C543        C  0.18723459  0.51803114  0.08381687    -0.10300
C544        C  0.16584905  0.50253457  0.08484616    -0.03200
C545        C  0.15804725  0.50299515  0.54354410    -0.18300
H546        H  0.06234287  0.48538190  0.45944288     0.10800
H547        H  0.08726163  0.48235325  0.49486930     0.10800
H548        H  0.13717333  0.54214007  0.44817627     0.10500
H549        H  0.11213653  0.54527271  0.41328303     0.11600
H550        H  0.12185800  0.49455720  0.51362539     0.11700
H551        H  0.15453004  0.54074207  0.49165534     0.13600
H552        H  0.18204104  0.55628164  0.53150706     0.10100
H553        H  0.20394067  0.55356922  0.57482546     0.12200
H554        H  0.15909872  0.49017645  0.10527411     0.08800
H555        H  0.14557516  0.48859904  0.53513022     0.11600
C556        C  0.08161338  0.58412832  0.29533853    -0.03000
C557        C  0.10333967  0.59776843  0.29191065    -0.05600
C558        C  0.11222295  0.61462659  0.26690439    -0.20700
C559        C  0.09963419  0.61826765  0.24481758     0.25000
C560        C  0.07781549  0.60489474  0.24887621    -0.18300
C561        C  0.06894936  0.58795819  0.27371997    -0.08200
C562        C  0.11002170  0.63625527  0.21835532    -0.18500
C563        C  0.10046107  0.63914520  0.19178450    -0.23300
C564        C  0.11155084  0.65725511  0.16581148     0.27100
C565        C  0.10035085  0.66485321  0.14793339    -0.20100
C566        C  0.11053259  0.68237365  0.12414669    -0.09700
C567        C  0.13194869  0.69218804  0.11739145    -0.10300
C568        C  0.14310430  0.68446794  0.13479872    -0.03200
C569        C  0.13299478  0.66699699  0.15845647    -0.18300
H570        H  0.11348974  0.59514446  0.30808455     0.10800
H571        H  0.12905822  0.62471446  0.26452932     0.10800
H572        H  0.06741179  0.60735519  0.23323170     0.10500
H573        H  0.05211944  0.57780966  0.27594465     0.11600
H574        H  0.12649194  0.64759054  0.22097558     0.11700
H575        H  0.08392836  0.62835597  0.18896482     0.13600
H576        H  0.08381347  0.65756951  0.15304404     0.10100
H577        H  0.10182055  0.68849534  0.11145829     0.12200
H578        H  0.15978550  0.69225621  0.13046011     0.08800
H579        H  0.14205443  0.66124483  0.17090050     0.11600
C580        C  0.06732600  0.57630403  0.44071217    -0.03000
C581        C  0.06826333  0.57347147  0.47515966    -0.05600
C582        C  0.07936333  0.59070254  0.49294864    -0.20700
C583        C  0.08996066  0.61129139  0.47693256     0.25000
C584        C  0.08869464  0.61423639  0.44243005    -0.18300
C585        C  0.07749173  0.59689720  0.42454771    -0.08200
C586        C  0.10157457  0.62890461  0.49762522    -0.18500
C587        C  0.11546751  0.64909938  0.48602963    -0.23300
C588        C  0.12592404  0.66614098  0.50790786     0.27100
C589        C  0.13153269  0.68657990  0.49544854    -0.20100
C590        C  0.13976398  0.70258642  0.51602235    -0.09700
C591        C  0.14283259  0.69859652  0.54946982    -0.10300
C592        C  0.13859984  0.67850566  0.56134506    -0.03200
C593        C  0.13019448  0.66243291  0.54086326    -0.18300
H594        H  0.06061127  0.55785514  0.48848388     0.10800
H595        H  0.07986593  0.58788096  0.51944822     0.10800
H596        H  0.09615734  0.62977356  0.42903863     0.10500
H597        H  0.07707916  0.59961553  0.39802210     0.11600
H598        H  0.09830984  0.62487980  0.52401759     0.11700
H599        H  0.11862787  0.65367528  0.45974290     0.13600
H600        H  0.12871201  0.68996605  0.47005794     0.10100
H601        H  0.14283114  0.71789043  0.50618296     0.12200
H602        H  0.15260369  0.67822058  0.07724665     0.08800
H603        H  0.12700460  0.64713420  0.55097106     0.11600
C604        C  0.74981627  0.22318345  0.44736452    -0.03000
C605        C  0.75057704  0.21156784  0.47609346    -0.05600
C606        C  0.76204533  0.22186523  0.50293307    -0.20700
C607        C  0.77306433  0.24395413  0.50160538     0.25000
C608        C  0.76200848  0.25576466  0.98107505    -0.18300
C609        C  0.74915698  0.24677657  0.95493441    -0.08200
C610        C  0.78310041  0.25402972  0.02933758    -0.18500
C611        C  0.79721072  0.27498072  0.02791887    -0.23300
C612        C  0.81179881  0.28578363  0.05449031     0.27100
C613        C  0.82028070  0.30741930  0.05481941    -0.20100
C614        C  0.83340557  0.31826841  0.07977674    -0.09700
C615        C  0.83877240  0.30784494  0.10479816    -0.10300
C616        C  0.83086784  0.28633023  0.10387689    -0.03200
C617        C  0.81755743  0.27540822  0.07907143    -0.18300
H618        H  0.74314029  0.19470255  0.47729301     0.10800
H619        H  0.76283096  0.21256902  0.52443556     0.10800
H620        H  0.76723563  0.27182855  0.98401168     0.10500
H621        H  0.74549552  0.25639426  0.93807444     0.11600
H622        H  0.78527980  0.24425473  0.55158676     0.11700
H623        H  0.79790753  0.28515100  0.00641044     0.13600
H624        H  0.81619458  0.31587610  0.03619143     0.10100
H625        H  0.83858353  0.33459369  0.08014964     0.12200
H626        H  0.83474124  0.27782190  0.12275061     0.08800
H627        H  0.81471763  0.25956728  0.58017150     0.11600
C628        C  0.52508030  0.22356762  0.40548316    -0.03000
C629        C  0.50802444  0.21593769  0.42737145    -0.05600
C630        C  0.50308892  0.22975164  0.43807644    -0.20700
C631        C  0.51509647  0.25138602  0.42711494     0.25000
C632        C  0.53357067  0.25918326  0.40828116    -0.18300
C633        C  0.53841694  0.24535757  0.39750597    -0.08200
C634        C  0.50645091  0.26449918  0.43278499    -0.18500
C635        C  0.51490013  0.28478950  0.42033898    -0.23300
C636        C  0.50399807  0.29601486  0.42327452     0.27100
C637        C  0.51542803  0.31706447  0.42959963    -0.20100
C638        C  0.50520829  0.32739965  0.43498234    -0.09700
C639        C  0.48346960  0.31713158  0.43282682    -0.10300
C640        C  0.47219918  0.29645432  0.42454630    -0.03200
C641        C  0.48233859  0.28597756  0.41981973    -0.18300
H642        H  0.49733367  0.19918966  0.43354000     0.10800
H643        H  0.48893802  0.22328076  0.45296896     0.10800
H644        H  0.54371878  0.27568956  0.39991991     0.10500
H645        H  0.55170580  0.25157114  0.38066223     0.11600
H646        H  0.49158742  0.25662765  0.44640175     0.11700
H647        H  0.53019954  0.29373047  0.40820012     0.13600
H648        H  0.53213530  0.32509904  0.43234524     0.10100
H649        H  0.51412035  0.34272001  0.44350327     0.12200
H650        H  0.45536425  0.28802784  0.42350114     0.08800
H651        H  0.47318668  0.26990466  0.41409384     0.11600
C652        C  0.70151922  0.18186543  0.93622638    -0.03000
C653        C  0.70072747  0.15859776  0.43727416    -0.05600
C654        C  0.67868947  0.14391993  0.94916950    -0.20700
C655        C  0.66990223  0.14656415  0.97640573     0.25000
C656        C  0.67757601  0.16707099  0.98408234    -0.18300
C657        C  0.69318606  0.18456785  0.96404478    -0.08200
C658        C  0.65176841  0.12784045  0.99484401    -0.18500
C659        C  0.64840839  0.12636703  0.02743563    -0.23300
C660        C  0.62956845  0.10866135  0.04613396     0.27100
C661        C  0.63078180  0.10445084  0.08015894    -0.20100
C662        C  0.61286890  0.09002581  0.09958359    -0.09700
C663        C  0.59321270  0.07970726  0.08546300    -0.10300
C664        C  0.59208938  0.08311608  0.05109904    -0.03200
C665        C  0.61008369  0.09743304  0.03159300    -0.18300
H666        H  0.70760484  0.15417058  0.41958609     0.10800
H667        H  0.67305938  0.12832312  0.94272591     0.10800
H668        H  0.67081357  0.16964279  0.00455604     0.10500
H669        H  0.69802613  0.20018708  0.96932317     0.11600
H670        H  0.64126808  0.11476133  0.98128546     0.11700
H671        H  0.66010216  0.13865230  0.04125683     0.13600
H672        H  0.64559325  0.11284564  0.09194216     0.10100
H673        H  0.61433036  0.08768610  0.12591636     0.12200
H674        H  0.57719911  0.07530592  0.03941989     0.08800
H675        H  0.60848164  0.10047284  0.00550826     0.11600
C676        C  0.70161611  0.17797617  0.36369775    -0.03000
C677        C  0.68169571  0.17331607  0.37250295    -0.05600
C678        C  0.66430663  0.16004055  0.35486097    -0.20700
C679        C  0.66640081  0.15088990  0.32840590     0.25000
C680        C  0.68632991  0.15541116  0.31980579    -0.18300
C681        C  0.70375464  0.16893783  0.33713211    -0.08200
C682        C  0.64789342  0.13800862  0.30873101    -0.18500
C683        C  0.64525608  0.12190854  0.29349687    -0.23300
C684        C  0.62720507  0.10975318  0.27255300     0.27100
C685        C  0.61924625  0.08834065  0.27094814    -0.20100
C686        C  0.60269601  0.07674312  0.25052042    -0.09700
C687        C  0.59420529  0.08653518  0.23054245    -0.10300
C688        C  0.60235748  0.10803445  0.23194251    -0.03200
C689        C  0.61855750  0.11947422  0.25279713    -0.18300
H690        H  0.67967379  0.18052070  0.39227487     0.10800
H691        H  0.64918831  0.15706113  0.36168552     0.10800
H692        H  0.68860814  0.14912076  0.29897418     0.10500
H693        H  0.71899745  0.17255640  0.32953989     0.11600
H694        H  0.63574817  0.14153381  0.30761187     0.11700
H695        H  0.65630818  0.11698657  0.29730230     0.13600
H696        H  0.62576855  0.08053582  0.28574170     0.10100
H697        H  0.59673488  0.06022199  0.25003683     0.12200
H698        H  0.59610110  0.11604841  0.21699737     0.08800
H699        H  0.62462102  0.13604682  0.25282519     0.11600
C700        C  0.52140363  0.18023085  0.42588744    -0.03000
C701        C  0.54011164  0.19297822  0.96013070    -0.05600
C702        C  0.53964244  0.18132015  0.98965584    -0.20700
C703        C  0.52526545  0.15949487  0.99520888     0.25000
C704        C  0.51058123  0.14982935  0.97092110    -0.18300
C705        C  0.50472449  0.16020303  0.43808472    -0.08200
C706        C  0.52746886  0.14747011  0.02513463    -0.18500
C707        C  0.51380963  0.12686783  0.03511844    -0.23300
C708        C  0.51745128  0.11396100  0.06184149     0.27100
C709        C  0.50207674  0.09244979  0.06827550    -0.20100
C710        C  0.50559419  0.07897219  0.08978750    -0.09700
C711        C  0.52465358  0.08662178  0.10552783    -0.10300
C712        C  0.53957997  0.10831335  0.10079584    -0.03200
C713        C  0.53607056  0.12184614  0.07924670    -0.18300
H714        H  0.55209266  0.20952732  0.95597564     0.10800
H715        H  0.55113749  0.18930301  0.00775115     0.10800
H716        H  0.49924659  0.13312947  0.97361031     0.10500
H717        H  0.49064248  0.15246207  0.42431643     0.11600
H718        H  0.54150397  0.15612122  0.03865563     0.11700
H719        H  0.49938365  0.11851800  0.02234003     0.13600
H720        H  0.48752207  0.08582508  0.05558991     0.10100
H721        H  0.49369274  0.06236207  0.09292105     0.12200
H722        H  0.55439219  0.11473596  0.11267860     0.08800
H723        H  0.54838538  0.13822604  0.07567370     0.11600
C724        C  0.51841562  0.06506257  0.24587480    -0.03000
C725        C  0.51694099  0.08154468  0.22964609    -0.05600
C726        C  0.51135220  0.09267156  0.24725202    -0.20700
C727        C  0.50743099  0.08777900  0.28143704     0.25000
C728        C  0.50821974  0.07084555  0.29760678    -0.18300
C729        C  0.51365278  0.05957459  0.27994369    -0.08200
C730        C  0.50313706  0.10110882  0.29924838    -0.18500
C731        C  0.50901241  0.10536832  0.33025604    -0.23300
C732        C  0.50883759  0.12246109  0.34435056     0.27100
C733        C  0.52498496  0.13498721  0.36473563    -0.20100
C734        C  0.52734706  0.15344645  0.37348196    -0.09700
C735        C  0.51347204  0.15944495  0.36209051    -0.10300
C736        C  0.49645287  0.14614634  0.34385151    -0.03200
C737        C  0.49398690  0.12766647  0.33535826    -0.18300
H738        H  0.52054816  0.08616301  0.20346275     0.10800
H739        H  0.51075225  0.10561927  0.23426350     0.10800
H740        H  0.50475749  0.06635976  0.32382147     0.10500
H741        H  0.51455704  0.04685984  0.29310323     0.11600
H742        H  0.49740763  0.10983850  0.28475905     0.11700
H743        H  0.51682668  0.09839748  0.34365454     0.13600
H744        H  0.53651973  0.13119435  0.37215624     0.10100
H745        H  0.54067006  0.16363751  0.38737909     0.12200
H746        H  0.48550253  0.15049513  0.33513568     0.08800
H747        H  0.48091682  0.11792018  0.32069227     0.11600
C748        C  0.31971874  0.84519711  0.47589885    -0.03000
C749        C  0.30922052  0.85324657  0.48998945    -0.05600
C750        C  0.28995274  0.83960181  0.50686471    -0.20700
C751        C  0.28079790  0.81769574  0.50969500     0.25000
C752        C  0.29864675  0.80590801  0.99774931    -0.18300
C753        C  0.31790563  0.81847391  0.98080501    -0.08200
C754        C  0.25847917  0.80370015  0.52127505    -0.18500
C755        C  0.25207939  0.78312513  0.00893493    -0.23300
C756        C  0.22951052  0.77112357  0.01801855     0.27100
C757        C  0.21861690  0.74913554  0.02370763    -0.20100
C758        C  0.19789797  0.73759179  0.03569650    -0.09700
C759        C  0.18754520  0.74784069  0.04141041    -0.10300
C760        C  0.19014192  0.76766041  0.53294027    -0.03200
C761        C  0.21117208  0.77973344  0.52264824    -0.18300
H762        H  0.31471473  0.86976510  0.48478633     0.10800
H763        H  0.28140846  0.84608994  0.51530534     0.10800
H764        H  0.29166459  0.78907112  0.00107513     0.10500
H765        H  0.32476832  0.81098343  0.97002147     0.11600
H766        H  0.25167978  0.81083552  0.53342846     0.11700
H767        H  0.25752071  0.77588223  0.99401393     0.13600
H768        H  0.22652694  0.74098434  0.02073936     0.10100
H769        H  0.19061003  0.72088387  0.04258533     0.12200
H770        H  0.18146075  0.77528041  0.53285012     0.08800
H771        H  0.21800093  0.79621454  0.51407461     0.11600
C772        C  0.47787294  0.97757142  0.09825720    -0.03000
C773        C  0.46289557  0.98236522  0.08789267    -0.05600
C774        C  0.44644540  0.96939189  0.06850959    -0.20700
C775        C  0.44424538  0.95108966  0.05901127     0.25000
C776        C  0.45904665  0.94602986  0.06970797    -0.18300
C777        C  0.47563154  0.95911387  0.08912905    -0.08200
C778        C  0.42695890  0.93860241  0.03664856    -0.18500
C779        C  0.41949180  0.91841823  0.03198226    -0.23300
C780        C  0.40234822  0.90618280  0.00913329     0.27100
C781        C  0.39301219  0.88425638  0.01139993    -0.20100
C782        C  0.37778566  0.87226500  0.98941343    -0.09700
C783        C  0.37163842  0.88191753  0.96431988    -0.10300
C784        C  0.38052405  0.90371468  0.96238709    -0.03200
C785        C  0.39571269  0.91573159  0.98437325    -0.18300
H786        H  0.46410742  0.99647096  0.09416322     0.10800
H787        H  0.43545099  0.97384330  0.06058817     0.10800
H788        H  0.45831544  0.93239641  0.06236487     0.10500
H789        H  0.48702833  0.95507631  0.09621543     0.11600
H790        H  0.41967611  0.94644066  0.02442368     0.11700
H791        H  0.42580613  0.91014068  0.04607000     0.13600
H792        H  0.39776604  0.87637937  0.02997597     0.10100
H793        H  0.37135401  0.85552782  0.99119599     0.12200
H794        H  0.37600300  0.91152135  0.94329720     0.08800
H795        H  0.40256159  0.93252186  0.98100901     0.11600
C796        C  0.47757812  0.97815639  0.22070145    -0.03000
C797        C  0.46149663  0.98208904  0.22147825    -0.05600
C798        C  0.44418579  0.96951090  0.24308684    -0.20700
C799        C  0.44288434  0.95315726  0.26501181     0.25000
C800        C  0.45855841  0.94865227  0.26327761    -0.18300
C801        C  0.47568541  0.96097343  0.24116017    -0.08200
C802        C  0.42496696  0.94116917  0.28920528    -0.18500
C803        C  0.42631997  0.93287480  0.31952306    -0.23300
C804        C  0.40863811  0.92115445  0.34441138     0.27100
C805        C  0.40982415  0.90836565  0.37107590    -0.20100
C806        C  0.39296477  0.89590836  0.39367970    -0.09700
C807        C  0.37464554  0.89608803  0.38999464    -0.10300
C808        C  0.37380225  0.90963741  0.36449815    -0.03200
C809        C  0.39065823  0.92221530  0.34214580    -0.18300
H810        H  0.46256422  0.99520988  0.20591164     0.10800
H811        H  0.43215343  0.97308676  0.24358444     0.10800
H812        H  0.45770240  0.93572848  0.27908371     0.10500
H813        H  0.48792398  0.95767128  0.24117677     0.11600
H814        H  0.41057130  0.93998987  0.28188806     0.11700
H815        H  0.44098322  0.93445629  0.32642695     0.13600
H816        H  0.42353623  0.90738858  0.37369681     0.10100
H817        H  0.39377415  0.88526698  0.41283136     0.12200
H818        H  0.35973346  0.90992833  0.36122607     0.08800
H819        H  0.38925084  0.93240926  0.32299074     0.11600
C820        C  0.60198052  0.88318580  0.42883753    -0.03000
C821        C  0.58381228  0.87078167  0.41185822    -0.05600
C822        C  0.57835455  0.85078638  0.40497151    -0.20700
C823        C  0.59062461  0.84258429  0.41564380     0.25000
C824        C  0.60934013  0.85538971  0.43103632    -0.18300
C825        C  0.61499058  0.87546657  0.43731910    -0.08200
C826        C  0.58373806  0.82084502  0.40975819    -0.18500
C827        C  0.58805447  0.80828747  0.42991438    -0.23300
C828        C  0.58211640  0.78694230  0.42289802     0.27100
C829        C  0.59398576  0.77862199  0.43561731    -0.20100
C830        C  0.59099127  0.76024792  0.42505527    -0.09700
C831        C  0.57596935  0.74992722  0.40181629    -0.10300
C832        C  0.56269796  0.75700388  0.39184957    -0.03200
C833        C  0.56560744  0.77521699  0.40242685    -0.18300
H834        H  0.57320865  0.87592093  0.40541009     0.10800
H835        H  0.56401848  0.84132086  0.39252899     0.10800
H836        H  0.61964564  0.84995440  0.43829522     0.10500
H837        H  0.62937355  0.88474627  0.44972920     0.11600
H838        H  0.57463483  0.81511964  0.38815693     0.11700
H839        H  0.59719512  0.81421219  0.45145999     0.13600
H840        H  0.60652435  0.78710655  0.45199223     0.10100
H841        H  0.60152961  0.75517860  0.43283435     0.12200
H842        H  0.55089280  0.74915418  0.37408464     0.08800
H843        H  0.55536708  0.78040460  0.39345784     0.11600
C844        C  0.59918329  0.94557395  0.95110141    -0.03000
C845        C  0.57839709  0.93876626  0.95809333    -0.05600
C846        C  0.57320001  0.95303210  0.96528357    -0.20700
C847        C  0.58878709  0.97421903  0.96656819     0.25000
C848        C  0.60956931  0.98119702  0.95840622    -0.18300
C849        C  0.61471971  0.96689651  0.95088877    -0.08200
C850        C  0.58292693  0.98794505  0.97946158    -0.18500
C851        C  0.59533578  0.00260825  0.99917024    -0.23300
C852        C  0.58678562  0.01063738  0.02128410     0.27100
C853        C  0.59371948  0.01317522  0.05357818    -0.20100
C854        C  0.58313819  0.01640320  0.07720110    -0.09700
C855        C  0.56559432  0.01743939  0.06877241    -0.10300
C856        C  0.55991529  0.01693339  0.03569127    -0.03200
C857        C  0.57039405  0.01350168  0.01211492    -0.18300
H858        H  0.56633918  0.92224313  0.95979752     0.10800
H859        H  0.55712397  0.94726465  0.97179456     0.10800
H860        H  0.62186925  0.99752284  0.95862951     0.10500
H861        H  0.63088456  0.97232643  0.94586041     0.11600
H862        H  0.56671506  0.98328464  0.97763607     0.11700
H863        H  0.61084554  0.00569427  0.00387994     0.13600
H864        H  0.60648718  0.01128108  0.06108184     0.10100
H865        H  0.58818367  0.01721778  0.10235631     0.12200
H866        H  0.54674662  0.01816155  0.02831217     0.08800
H867        H  0.56516399  0.01229141  0.98707182     0.11600
C868        C  0.59298206  0.91833753  0.39801136    -0.03000
C869        C  0.60824490  0.93096291  0.37302951    -0.05600
C870        C  0.60350481  0.93983132  0.34487990    -0.20700
C871        C  0.58355338  0.93664195  0.34165941     0.25000
C872        C  0.56778265  0.92241213  0.36527956    -0.18300
C873        C  0.57245852  0.91317839  0.39303814    -0.08200
C874        C  0.58000908  0.94912118  0.31439757    -0.18500
C875        C  0.56745839  0.95639320  0.31834303    -0.23300
C876        C  0.56446746  0.97042789  0.29309238     0.27100
C877        C  0.57220067  0.97535575  0.26021824    -0.20100
C878        C  0.56801656  0.98783836  0.23736025    -0.09700
C879        C  0.55595457  0.99562443  0.24666785    -0.10300
C880        C  0.54870953  0.99115202  0.27963429    -0.03200
C881        C  0.55291050  0.97873920  0.30246051    -0.18300
H882        H  0.62151661  0.93419135  0.86924031     0.10800
H883        H  0.61583426  0.95040602  0.32674596     0.10800
H884        H  0.55202008  0.91892433  0.36286507     0.10500
H885        H  0.56035785  0.90303992  0.41168357     0.11600
H886        H  0.58949212  0.95395527  0.29199146     0.11700
H887        H  0.55940948  0.95249564  0.34208899     0.13600
H888        H  0.58103404  0.96928237  0.25159591     0.10100
H889        H  0.57375081  0.99089626  0.21211863     0.12200
H890        H  0.53933378  0.99683197  0.28768355     0.08800
H891        H  0.54678377  0.97534239  0.32753270     0.11600
N892        N  0.59839192  0.91656264  0.92533940    -0.03300
C893        C  0.60595567  0.90403182  0.93374945    -0.00700
C894        C  0.61578330  0.90841859  0.47194105    -0.23600
C895        C  0.61525944  0.92549829  0.47844297    -0.23800
C896        C  0.60515427  0.92940923  0.45283180    -0.00800
H897        H  0.62194731  0.90074891  0.48795667     0.13000
H898        H  0.62105180  0.93377687  0.50000037     0.13000
N899        N  0.35786610  0.86997106  0.93928028    -0.03300
C900        C  0.33975679  0.85086173  0.94354548    -0.00700
C901        C  0.33156571  0.84421606  0.91348135    -0.23600
C902        C  0.34489870  0.85958454  0.88977561    -0.23800
C903        C  0.36088600  0.87511031  0.90608071    -0.00800
H904        H  0.31685444  0.83013151  0.90932280     0.13000
H905        H  0.34320637  0.85941265  0.86340364     0.13000
O906        O  0.53701726  0.01531569  0.72560987    -0.80000
O907        O  0.55630585  0.06288061  0.58996986    -0.80000
O908        O  0.55362927  0.01493692  0.62075518    -0.80000
O909        O  0.57227044  0.08757328  0.68094854    -0.79900
O910        O  0.53628996  0.02166833  0.58249964    -0.80100
O911        O  0.56612734  0.05755131  0.70650967    -0.80000
O912        O  0.57477104  0.06575539  0.63433508    -0.80000
O913        O  0.55399723  0.01224615  0.68740714    -0.80000
C914        C  0.54889724  0.00952156  0.71742911     1.09700
C915        C  0.57387866  0.06955826  0.60354839     1.09600
C916        C  0.55055227  0.01817887  0.59076932     1.09700
C917        C  0.57715032  0.07794704  0.70289212     1.09600
O918        O  0.52974972  0.04482265  0.73835055    -0.80000
O919        O  0.49865918  0.01378325  0.61426220    -0.80100
O920        O  0.50819976  0.99104962  0.68962638    -0.80000
O921        O  0.54786482  0.08098916  0.62932484    -0.80000
O922        O  0.51714978  0.05537125  0.61947847    -0.80000
O923        O  0.50401552  0.01729489  0.69556825    -0.80000
O924        O  0.53064785  0.06314321  0.69189969    -0.79900
O925        O  0.50824092  0.99097720  0.62269486    -0.80000
Co926      Co  0.53407864  0.03717396  0.69818871     1.51500
Co927      Co  0.52722822  0.03819587  0.60463235     1.51700
Co928      Co  0.53165560  0.00422581  0.65502797     1.51600
Co929      Co  0.55277192  0.06267758  0.66283555     1.51500
O930        O  0.53548090  0.03315602  0.65084363    -1.41900
C931        C  0.52686396  0.05856209  0.72343923     1.09600
C932        C  0.49472009  0.99541796  0.61329994     1.09700
C933        C  0.49728151  0.99786452  0.69937674     1.09700
C934        C  0.53009716  0.07482940  0.61796727     1.09600
N935        N  0.52931626  0.19437468  0.90272170    -0.03300
C936        C  0.53518619  0.21483835  0.89488802    -0.00700
C937        C  0.53993660  0.22072362  0.86143371    -0.23600
C938        C  0.53663668  0.20350732  0.84806059    -0.23800
C939        C  0.53018204  0.18761793  0.87366480    -0.00800
H940        H  0.54385396  0.23552628  0.84771923     0.13000
H941        H  0.53818668  0.20247100  0.82222316     0.13000
N942        N  0.71503141  0.19955419  0.91248494    -0.03300
C943        C  0.73192616  0.21863948  0.91785000    -0.00700
C944        C  0.74007063  0.23118204  0.88808083    -0.23600
C945        C  0.72793371  0.21963443  0.86375586    -0.23800
C946        C  0.71261065  0.20043905  0.87930872    -0.00800
H947        H  0.75356062  0.24706043  0.88439571     0.13000
H948        H  0.72973912  0.22487346  0.83762725     0.13000
O949        O  0.05298372  0.54064115  0.93857678    -0.80000
O950        O  0.01469403  0.52077108  0.80527816    -0.80000
O951        O  0.08352512  0.56201105  0.84389996    -0.80000
O952        O  0.00844025  0.53717513  0.90511768    -0.79900
O953        O  0.05336666  0.54905262  0.81923481    -0.80100
O954        O  0.01075313  0.51842803  0.94799516    -0.80000
O955        O  0.01074760  0.53836785  0.83937637    -0.80000
O956        O  0.05738050  0.55995602  0.89109097    -0.80000
C957        C  0.05911144  0.55843847  0.92211536     1.09700
C958        C  0.01021809  0.53409583  0.81039073     1.09600
C959        C  0.07271528  0.56377749  0.82098156     1.09700
C960        C  0.00650563  0.53190779  0.93570752     1.09600
O961        O  0.00799793  0.48229825  0.92522272    -0.80000
O962        O  0.04528367  0.51351547  0.79639876    -0.80100
O963        O  0.07573308  0.53553793  0.90114900    -0.80000
O964        O  0.98864725  0.49196517  0.84624814    -0.80000
O965        O  0.01414874  0.48623484  0.84229957    -0.80000
O966        O  0.05109259  0.50366181  0.91935276    -0.80000
O967        O  0.98508851  0.49118709  0.91233554    -0.79900
O968        O  0.06407841  0.52003444  0.84098486    -0.80000
Co969      Co  0.03068276  0.51131630  0.92954896     1.51500
Co970      Co  0.03439945  0.51679458  0.83453630     1.51700
Co971      Co  0.05853794  0.53963100  0.86628280     1.51600
Co972      Co  0.00009294  0.51533679  0.87585476     1.51500
O973        O  0.02845853  0.51900039  0.88072296    -1.41900
C974        C  0.98941308  0.47794006  0.92571155     1.09600
C975        C  0.06089747  0.51503823  0.81101826     1.09700
C976        C  0.07022973  0.51802892  0.91752194     1.09700
C977        C  0.99518520  0.48045106  0.83854362     1.09600
N978        N  0.19862697  0.51807747  0.60763498    -0.03300
C979        C  0.21540245  0.51595311  0.60734119    -0.00700
C980        C  0.21975728  0.51152053  0.63925184    -0.23600
C981        C  0.20524108  0.51056249  0.65971982    -0.23800
C982        C  0.19233811  0.51447234  0.63992579    -0.00800
H983        H  0.23223052  0.50920375  0.64690923     0.13000
H984        H  0.20413802  0.50723152  0.68629827     0.13000
N985        N  0.86756745  0.33916469  0.63623841    -0.03300
C986        C  0.85224818  0.31853349  0.63591467    -0.00700
C987        C  0.84694584  0.30860350  0.66786455    -0.23600
C988        C  0.85913872  0.32352788  0.68840036    -0.23800
C989        C  0.87165226  0.34208205  0.66846288    -0.00800
H990        H  0.83489201  0.29242432  0.67556348     0.13000
H991        H  0.85876929  0.32116750  0.71504565     0.13000
N992        N  0.89171630  0.56182921  0.59530880    -0.03300
C993        C  0.87274755  0.55963346  0.59723803    -0.00700
C994        C  0.86883838  0.56205782  0.62874840    -0.23600
C995        C  0.88568668  0.56564023  0.64693062    -0.23800
C996        C  0.89934392  0.56514363  0.62608761    -0.00800
H997        H  0.85514846  0.56137282  0.63754190     0.13000
H998        H  0.88738168  0.56749203  0.67292104     0.13000
N999        N  0.14783494  0.71418585  0.57153984    -0.03300
C1000       C  0.16059168  0.73535515  0.56426609    -0.00700
C1001       C  0.15593684  0.74546728  0.58545754    -0.23600
C1002       C  0.14032503  0.73013296  0.60689949    -0.23800
C1003       C  0.13574041  0.71113810  0.59803879    -0.00800
H1004       H  0.16448677  0.76213746  0.58758456     0.13000
H1005       H  0.13452711  0.73260734  0.62868651     0.13000
O1006       O  0.53666089  0.52087219  0.59742159    -0.80000
O1007       O  0.51811753  0.53465654  0.73179439    -0.80000
O1008       O  0.54020664  0.49190554  0.69197099    -0.80000
O1009       O  0.49530654  0.52571039  0.62750371    -0.79900
O1010       O  0.52403981  0.50395981  0.71730913    -0.80100
O1011       O  0.51993236  0.54502993  0.58896137    -0.80000
O1012       O  0.49446988  0.52106222  0.69546807    -0.80000
O1013       O  0.51857877  0.49794207  0.64060583    -0.80000
C1014       C  0.52311227  0.50223055  0.60978418     1.09700
C1015       C  0.49911187  0.52479825  0.72486109     1.09600
C1016       C  0.52836548  0.48966427  0.71547791     1.09700
C1017       C  0.50060131  0.53290717  0.59761646     1.09600
O1018       O  0.55579131  0.57753912  0.62120040    -0.80000
O1019       O  0.55389194  0.53774378  0.74465475    -0.80100
O1020       O  0.56261694  0.52095884  0.63865292    -0.80000
O1021       O  0.52569259  0.56609272  0.69313633    -0.80000
O1022       O  0.55559015  0.56773357  0.69863735    -0.80000
O1023       O  0.57353762  0.55397383  0.62625869    -0.80000
O1024       O  0.52400223  0.57068287  0.62680300    -0.79900
O1025       O  0.56630811  0.53292340  0.70067163    -0.80000
Co1026     Co  0.54617260  0.54901233  0.61153210     1.43100
Co1027     Co  0.54081659  0.53681128  0.70465317     1.51700
Co1028     Co  0.54031066  0.51567513  0.67087233     1.51600
Co1029     Co  0.51087995  0.54483384  0.66071092     1.51500
O1030       O  0.53320402  0.53763608  0.65770335    -1.41900
C1031       C  0.54311364  0.58349717  0.61806551     1.09600
C1032       C  0.56823456  0.53718324  0.73100063     1.09700
C1033       C  0.57674371  0.53921467  0.62644636     1.09700
C1034       C  0.54461591  0.57553248  0.70182984     1.09600
N1035       N  0.47767634  0.34764981  0.94426747    -0.03300
C1036       C  0.47398751  0.32786216  0.94781914    -0.00700
C1037       C  0.45986446  0.31574875  0.97372924    -0.23600
C1038       C  0.45475089  0.32836894  0.98682755    -0.23800
C1039       C  0.46591462  0.34787541  0.96851861    -0.00800
H1040       H  0.45494921  0.29984227  0.98353817     0.13000
H1041       H  0.44549361  0.32462755  0.50938071     0.13000
N1042       N  0.36145661  0.52002387  0.92664657    -0.03300
C1043       C  0.34244813  0.51727996  0.93130354    -0.00700
C1044       C  0.33279502  0.51560920  0.90161970    -0.23600
C1045       C  0.34623890  0.51743011  0.87783126    -0.23800
C1046       C  0.36372948  0.52014788  0.89372436    -0.00800
H1047       H  0.31777190  0.51379336  0.89763243     0.13000
H1048       H  0.34357197  0.51692207  0.85170348     0.13000
N1049       N  0.71547728  0.56247955  0.94755508    -0.03300
C1050       C  0.73629758  0.57005262  0.94778803    -0.00700
C1051       C  0.74463968  0.57606900  0.91588847    -0.23600
C1052       C  0.72860780  0.57189844  0.89534334    -0.23800
C1053       C  0.71093232  0.56361769  0.91519800    -0.00800
H1054       H  0.76054090  0.58187485  0.90825205     0.13000
H1055       H  0.72969567  0.57459070  0.86869815     0.13000
N1056       N  0.57203393  0.71820079  0.89253621    -0.03300
C1057       C  0.57015671  0.73503568  0.88434432    -0.00700
C1058       C  0.57266586  0.74068532  0.85067452    -0.23600
C1059       C  0.57615497  0.72701355  0.83744268    -0.23800
C1060       C  0.57559489  0.71333231  0.86339224    -0.00800
H1061       H  0.57252469  0.75377376  0.83725223     0.13000
H1062       H  0.57829760  0.72670047  0.81150194     0.13000
C1063       C  0.38207185  0.52295946  0.87613342    -0.03000
C1064       C  0.38901701  0.53560201  0.84575065    -0.05600
C1065       C  0.40449713  0.53656921  0.82662434    -0.20700
C1066       C  0.41345710  0.52489200  0.83722891     0.25000
C1067       C  0.40697269  0.51266308  0.86823834    -0.18300
C1068       C  0.39141287  0.51173593  0.88750197    -0.08200
C1069       C  0.42823868  0.52493499  0.81389776    -0.18500
C1070       C  0.44076929  0.51761929  0.82178633    -0.23300
C1071       C  0.45488173  0.51786562  0.79686523     0.27100
C1072       C  0.47388795  0.52033851  0.80666457    -0.20100
C1073       C  0.48792429  0.52173378  0.78346025    -0.09700
C1074       C  0.48305998  0.52023602  0.74999489    -0.10300
C1075       C  0.46358850  0.51670056  0.74045343    -0.03200
C1076       C  0.44966932  0.51556894  0.76358667    -0.18300
H1077       H  0.38212501  0.54445524  0.83642618     0.10800
H1078       H  0.40913660  0.54613951  0.80295866     0.10800
H1079       H  0.41315871  0.50312480  0.87717829     0.10500
H1080       H  0.38603934  0.50150559  0.91050810     0.11600
H1081       H  0.42906786  0.53180981  0.78874217     0.11700
H1082       H  0.44165735  0.51236872  0.84724330     0.13600
H1083       H  0.47818307  0.52187878  0.83217097     0.10100
H1084       H  0.50281041  0.52446088  0.79159923     0.12200
H1085       H  0.45940030  0.51555366  0.71487648     0.08800
H1086       H  0.43485916  0.51294158  0.75529701     0.11600
C1087       C  0.48390600  0.52926742  0.57399659    -0.03000
C1088       C  0.46329905  0.51227884  0.58106716    -0.05600
C1089       C  0.44688244  0.51038483  0.56183976    -0.20700
C1090       C  0.45045118  0.52561438  0.53538073     0.25000
C1091       C  0.47119629  0.54228933  0.52754653    -0.18300
C1092       C  0.48771187  0.54403283  0.54658031    -0.08200
C1093       C  0.43215867  0.52325795  0.51653992    -0.18500
C1094       C  0.43187755  0.53945354  0.49931783    -0.23300
C1095       C  0.41378650  0.53777508  0.48049893     0.27100
C1096       C  0.41330947  0.54459856  0.96536355    -0.20100
C1097       C  0.39682623  0.54230425  0.94613980    -0.09700
C1098       C  0.37705013  0.52379623  0.95057125    -0.10300
C1099       C  0.37859476  0.51823166  0.45918949    -0.03200
C1100       C  0.39438883  0.51876217  0.47884014    -0.18300
H1101       H  0.45978368  0.50063243  0.60200533     0.10800
H1102       H  0.43118656  0.49722984  0.56830085     0.10800
H1103       H  0.47478456  0.55403746  0.50679697     0.10500
H1104       H  0.50335975  0.55740217  0.54060769     0.11600
H1105       H  0.41824001  0.50763096  0.51835158     0.11700
H1106       H  0.44571305  0.55510480  0.49906824     0.13600
H1107       H  0.42853071  0.55888707  0.96078136     0.10100
H1108       H  0.39964006  0.55465865  0.92684646     0.12200
H1109       H  0.36432209  0.50331230  0.45685338     0.08800
H1110       H  0.39137478  0.50413234  0.49181567     0.11600
C1111       C  0.57599365  0.69467227  0.85757437    -0.03000
C1112       C  0.55911981  0.67440793  0.86794921    -0.05600
C1113       C  0.55625095  0.65719627  0.85348732    -0.20700
C1114       C  0.57013194  0.65998574  0.82840559     0.25000
C1115       C  0.58807631  0.68012006  0.82045991    -0.18300
C1116       C  0.59089579  0.69722011  0.83489193    -0.08200
C1117       C  0.56405267  0.64216428  0.80896001    -0.18500
C1118       C  0.57528327  0.64313541  0.78304966    -0.23300
C1119       C  0.56725286  0.62615891  0.76138143     0.27100
C1120       C  0.58133329  0.62291702  0.74568364    -0.20100
C1121       C  0.57414937  0.60686733  0.72539080    -0.09700
C1122       C  0.55276947  0.59412337  0.71979273    -0.10300
C1123       C  0.53880257  0.59805181  0.73427285    -0.03200
C1124       C  0.54593977  0.61384424  0.75492359    -0.18300
H1125       H  0.54725951  0.67210816  0.88506831     0.10800
H1126       H  0.54238721  0.64187444  0.86037843     0.10800
H1127       H  0.59946189  0.68325751  0.80180644     0.10500
H1128       H  0.60401857  0.71278235  0.82653161     0.11600
H1129       H  0.54901609  0.62783139  0.81533801     0.11700
H1130       H  0.59090567  0.65653492  0.77719166     0.13600
H1131       H  0.59787759  0.63250069  0.74978424     0.10100
H1132       H  0.58526280  0.60422616  0.71448972     0.12200
H1133       H  0.52221819  0.58848189  0.73048390     0.08800
H1134       H  0.53475258  0.61645219  0.76560163     0.11600
C1135       C  0.55028009  0.60461028  0.60049129    -0.03000
C1136       C  0.57163415  0.61912377  0.59325181    -0.05600
C1137       C  0.57836375  0.63760869  0.57215527    -0.20700
C1138       C  0.56398731  0.64212895  0.55761167     0.25000
C1139       C  0.54261212  0.62804435  0.56613897    -0.18300
C1140       C  0.53588975  0.60956104  0.58744643    -0.08200
C1141       C  0.57197092  0.66052836  0.53163122    -0.18500
C1142       C  0.56024977  0.66733431  0.51647750    -0.23300
C1143       C  0.56736476  0.68322777  0.48667295     0.27100
C1144       C  0.55480287  0.69111059  0.47597967    -0.20100
C1145       C  0.55276503  0.70096799  0.94604427    -0.09700
C1146       C  0.56972254  0.70698724  0.92480083    -0.10300
C1147       C  0.58331940  0.70020810  0.93417865    -0.03200
C1148       C  0.57951225  0.68684635  0.96334505    -0.18300
H1149       H  0.58316345  0.61583816  0.60293546     0.10800
H1150       H  0.59489372  0.64806135  0.56621289     0.10800
H1151       H  0.53083041  0.63056964  0.55551216     0.10500
H1152       H  0.51931625  0.59863547  0.59234942     0.11600
H1153       H  0.58825785  0.66830512  0.52405405     0.11700
H1154       H  0.54436765  0.66060803  0.52538130     0.13600
H1155       H  0.54107602  0.68683667  0.49046204     0.10100
H1156       H  0.54194779  0.70582492  0.93925713     0.12200
H1157       H  0.59659399  0.70477225  0.91830289     0.08800
H1158       H  0.58995962  0.68137891  0.96853108     0.11600
C1159       C  0.69055027  0.55785397  0.90134065    -0.03000
C1160       C  0.68053470  0.56807918  0.90867551    -0.05600
C1161       C  0.66399360  0.56611509  0.88971207    -0.20700
C1162       C  0.65727098  0.55399644  0.86306655     0.25000
C1163       C  0.66653070  0.54271228  0.85725217    -0.18300
C1164       C  0.68310394  0.54480592  0.87601283    -0.08200
C1165       C  0.64052404  0.55339644  0.84222206    -0.18500
C1166       C  0.63724429  0.54806406  0.81108650    -0.23300
C1167       C  0.62015835  0.54682554  0.79019790     0.27100
C1168       C  0.61935348  0.54265073  0.75725742    -0.20100
C1169       C  0.60288155  0.54006797  0.73739747    -0.09700
C1170       C  0.58685260  0.54163821  0.75011516    -0.10300
C1171       C  0.58796536  0.54635571  0.78270006    -0.03200
C1172       C  0.60425399  0.54881630  0.80249193    -0.18300
H1173       H  0.68623797  0.57847490  0.92777242     0.10800
H1174       H  0.65694322  0.57473176  0.89509250     0.10800
H1175       H  0.66128656  0.53246704  0.83803135     0.10500
H1176       H  0.69064866  0.53676567  0.87001054     0.11600
H1177       H  0.63124721  0.55838097  0.85292764     0.11700
H1178       H  0.64765158  0.54455019  0.79994343     0.13600
H1179       H  0.63133240  0.54100827  0.74699686     0.10100
H1180       H  0.60246791  0.53641555  0.71242237     0.12200
H1181       H  0.57588075  0.54766628  0.79339351     0.08800
H1182       H  0.60377356  0.55174157  0.82756068     0.11600
C1183       C  0.59604473  0.54300769  0.61031869    -0.03000
C1184       C  0.61150624  0.56331533  0.59656589    -0.05600
C1185       C  0.62885756  0.56675542  0.57903797    -0.20700
C1186       C  0.63124981  0.55002684  0.57443881     0.25000
C1187       C  0.61600380  0.52970223  0.58880589    -0.18300
C1188       C  0.59862842  0.52626786  0.60649934    -0.08200
C1189       C  0.64997609  0.55474669  0.55486798    -0.18500
C1190       C  0.65179604  0.54036819  0.54104210    -0.23300
C1191       C  0.67000638  0.54598404  0.51922342     0.27100
C1192       C  0.66715729  0.53286032  0.49522503    -0.20100
C1193       C  0.68329377  0.53848211  0.47248282    -0.09700
C1194       C  0.70127749  0.55616976  0.97541532    -0.10300
C1195       C  0.70559202  0.56999284  0.99891959    -0.03200
C1196       C  0.69052879  0.56515976  0.02332999    -0.18300
H1197       H  0.61006345  0.57658911  0.59891021     0.10800
H1198       H  0.64033737  0.58259888  0.56852965     0.10800
H1199       H  0.61740450  0.51641092  0.58665666     0.10500
H1200       H  0.58702996  0.51041242  0.61676240     0.11600
H1201       H  0.66229769  0.57118408  0.54992201     0.11700
H1202       H  0.63885118  0.52413634  0.54345207     0.13600
H1203       H  0.65212609  0.51861151  0.49321350     0.10100
H1204       H  0.68038149  0.52858300  0.45331139     0.12200
H1205       H  0.72033859  0.58491191  0.99752256     0.08800
H1206       H  0.69442269  0.57640100  0.04060089     0.11600
C1207       C  0.51955613  0.47098933  0.74083374    -0.03000
C1208       C  0.50683941  0.46892491  0.76718073    -0.05600
C1209       C  0.49960100  0.45215832  0.79229935    -0.20700
C1210       C  0.50510990  0.43717289  0.79211102     0.25000
C1211       C  0.51761547  0.43902225  0.76557247    -0.18300
C1212       C  0.52473751  0.45573552  0.74022743    -0.08200
C1213       C  0.49698575  0.41960081  0.81948765    -0.18500
C1214       C  0.50688819  0.40967733  0.83007735    -0.23300
C1215       C  0.49902518  0.39293886  0.85876108     0.27100
C1216       C  0.51329609  0.39031295  0.87812047    -0.20100
C1217       C  0.50642784  0.37517638  0.90584838    -0.09700
C1218       C  0.48509865  0.36216514  0.91445925    -0.10300
C1219       C  0.47078594  0.36435571  0.89461638    -0.03200
C1220       C  0.47761209  0.37949005  0.86704439    -0.18300
H1221       H  0.50263391  0.48041764  0.76863075     0.10800
H1222       H  0.48989974  0.45108000  0.81229774     0.10800
H1223       H  0.52174077  0.42748310  0.76413177     0.10500
H1224       H  0.53450171  0.45683543  0.72033118     0.11600
H1225       H  0.48298094  0.41571182  0.83285469     0.11700
H1226       H  0.52195892  0.41493135  0.81891817     0.13600
H1227       H  0.52986848  0.40040020  0.87227489     0.10100
H1228       H  0.51779996  0.37417234  0.92109946     0.12200
H1229       H  0.45425403  0.35440396  0.90082054     0.08800
H1230       H  0.46608140  0.38055179  0.85223195     0.11600
C1231       C  0.46778274  0.36691071  0.97907332    -0.03000
C1232       C  0.45234808  0.36590539  0.49369300    -0.05600
C1233       C  0.45604099  0.38329507  0.50837229    -0.20700
C1234       C  0.47580904  0.40191139  0.50565432     0.25000
C1235       C  0.49157154  0.40310295  0.48635728    -0.18300
C1236       C  0.48720737  0.38593177  0.97725898    -0.08200
C1237       C  0.47984416  0.41863615  0.52617853    -0.18500
C1238       C  0.49662786  0.43836682  0.52195722    -0.23300
C1239       C  0.50149750  0.45419244  0.54479337     0.27100
C1240       C  0.51383231  0.47549657  0.53276140    -0.20100
C1241       C  0.52002733  0.49094208  0.55374765    -0.09700
C1242       C  0.51431634  0.48548903  0.58756728    -0.10300
C1243       C  0.50174625  0.46413116  0.59968707    -0.03200
C1244       C  0.49539917  0.44860406  0.57850718    -0.18300
H1245       H  0.43588288  0.35070995  0.99810854     0.10800
H1246       H  0.44360904  0.38190366  0.52302821     0.10800
H1247       H  0.50717415  0.41690927  0.48408284     0.10500
H1248       H  0.50059812  0.38752361  0.96536125     0.11600
H1249       H  0.46850746  0.41434792  0.54589803     0.11700
H1250       H  0.50710253  0.44346343  0.50066080     0.13600
H1251       H  0.51889289  0.48022811  0.50702363     0.10100
H1252       H  0.52977313  0.50722783  0.54347742     0.12200
H1253       H  0.49733884  0.45941428  0.62563863     0.08800
H1254       H  0.48640685  0.43229711  0.58887682     0.11600
C1255       C  0.85814230  0.55682980  0.57055350    -0.03000
C1256       C  0.86410147  0.57237512  0.54370852    -0.05600
C1257       C  0.84888326  0.57393559  0.52551574    -0.20700
C1258       C  0.82721146  0.56141517  0.03593566     0.25000
C1259       C  0.82195532  0.54646860  0.06367477    -0.18300
C1260       C  0.83682156  0.54178655  0.57694044    -0.08200
C1261       C  0.81160557  0.56540069  0.01912353    -0.18500
C1262       C  0.79154308  0.55647724  0.02981886    -0.23300
C1263       C  0.77667821  0.56128737  0.01273057     0.27100
C1264       C  0.75530981  0.54557943  0.01332888    -0.20100
C1265       C  0.74131776  0.54903352  0.99479130    -0.09700
C1266       C  0.74846023  0.56838610  0.97571534    -0.10300
C1267       C  0.76944533  0.58464357  0.97748470    -0.03200
C1268       C  0.78340583  0.58117503  0.99578187    -0.18300
H1269       H  0.88041785  0.58436604  0.53864252     0.10800
H1270       H  0.85389923  0.58683925  0.50613477     0.10800
H1271       H  0.80609341  0.53617289  0.07311754     0.10500
H1272       H  0.83185981  0.52968050  0.59765932     0.11600
H1273       H  0.81711059  0.57657286  0.99701430     0.11700
H1274       H  0.78525142  0.54465928  0.05097879     0.13600
H1275       H  0.74965023  0.53021138  0.02665928     0.10100
H1276       H  0.72535076  0.53610654  0.99336184     0.12200
H1277       H  0.77533881  0.59971730  0.96295314     0.08800
H1278       H  0.79954814  0.59392346  0.99589736     0.11600
C1279       C  0.33330457  0.51825673  0.96189479    -0.03000
C1280       C  0.31908196  0.49954453  0.98124700    -0.05600
C1281       C  0.31707662  0.51732864  0.49534104    -0.20700
C1282       C  0.30389367  0.51693565  0.00471937     0.25000
C1283       C  0.31924002  0.53605477  0.98710634    -0.18300
C1284       C  0.33368923  0.53662536  0.96576324    -0.08200
C1285       C  0.28644057  0.51481355  0.02437802    -0.18500
C1286       C  0.27976059  0.52823851  0.01981498    -0.23300
C1287       C  0.26194332  0.52542651  0.03921223     0.27100
C1288       C  0.26233881  0.54326774  0.04672619    -0.20100
C1289       C  0.24684732  0.54120847  0.06750969    -0.09700
C1290       C  0.22817745  0.51792260  0.57849364    -0.10300
C1291       C  0.23555734  0.50433356  0.57900681    -0.03200
C1292       C  0.25133910  0.50839223  0.55683744    -0.18300
H1293       H  0.33702285  0.50946669  0.47321930     0.10800
H1294       H  0.31091266  0.50389552  0.51399471     0.10800
H1295       H  0.31977589  0.55046352  0.98879257     0.10500
H1296       H  0.34425063  0.55113732  0.95050106     0.11600
H1297       H  0.28914520  0.51477354  0.53854360     0.11700
H1298       H  0.28785941  0.54214880  0.00209053     0.13600
H1299       H  0.27528588  0.55885000  0.03800638     0.10100
H1300       H  0.24842407  0.55518972  0.07519586     0.12200
H1301       H  0.22956576  0.49082903  0.59749938     0.08800
H1302       H  0.25648764  0.49749957  0.55842365     0.11600
C1303       C  0.91791823  0.56505436  0.63804838    -0.03000
C1304       C  0.92086605  0.54897543  0.63178997    -0.05600
C1305       C  0.93666513  0.54720451  0.64700564    -0.20700
C1306       C  0.94970537  0.56125782  0.66917529     0.25000
C1307       C  0.94721149  0.57790419  0.67440831    -0.18300
C1308       C  0.93140417  0.57966487  0.65908179    -0.08200
C1309       C  0.96406126  0.55654096  0.68829084    -0.18500
C1310       C  0.97687645  0.56805142  0.71131192    -0.23300
C1311       C  0.98749473  0.56051392  0.73473345     0.27100
C1312       C  0.99217551  0.54563786  0.72770772    -0.20100
C1313       C  0.00020041  0.53747525  0.75194986    -0.09700
C1314       C  0.00376487  0.54407059  0.78354255    -0.10300
C1315       C  0.00009600  0.55970326  0.78991745    -0.03200
C1316       C  0.99216018  0.56788639  0.76573795    -0.18300
H1317       H  0.91032981  0.53713564  0.61642551     0.10800
H1318       H  0.93809863  0.53419923  0.64250358     0.10800
H1319       H  0.95673524  0.58921272  0.69108808     0.10500
H1320       H  0.92930067  0.59212492  0.66440021     0.11600
H1321       H  0.96255845  0.54179349  0.68504220     0.11700
H1322       H  0.97818035  0.58251202  0.71570701     0.13600
H1323       H  0.98953114  0.54011402  0.70371879     0.10100
H1324       H  0.00312559  0.52563390  0.74621080     0.12200
H1325       H  0.00288904  0.56529326  0.81391990     0.08800
H1326       H  0.98891849  0.57946984  0.77172672     0.11600
C1327       C  0.99673827  0.53971138  0.95580347    -0.03000
C1328       C  0.00283793  0.56091023  0.95069209    -0.05600
C1329       C  0.99127848  0.56768987  0.96519423    -0.20700
C1330       C  0.97295052  0.55329999  0.98412377     0.25000
C1331       C  0.96719727  0.53216036  0.98996556    -0.18300
C1332       C  0.97906435  0.52548545  0.97610937    -0.08200
C1333       C  0.96063122  0.56093437  0.99836003    -0.18500
C1334       C  0.93971791  0.54883878  0.00403847    -0.23300
C1335       C  0.92693078  0.55505423  0.02110550     0.27100
C1336       C  0.90559434  0.53995137  0.02810429    -0.20100
C1337       C  0.89222576  0.54101494  0.55342154    -0.09700
C1338       C  0.90281926  0.56263428  0.06240598    -0.10300
C1339       C  0.92353954  0.57845267  0.05306292    -0.03200
C1340       C  0.93549950  0.57477454  0.03272031    -0.18300
H1341       H  0.01632392  0.57213783  0.93488353     0.10800
H1342       H  0.99628204  0.58410839  0.96071140     0.10800
H1343       H  0.95354719  0.52073897  0.00523826     0.10500
H1344       H  0.97385963  0.50899870  0.97995799     0.11600
H1345       H  0.96926856  0.57710812  0.00362337     0.11700
H1346       H  0.93145348  0.53306239  0.99679227     0.13600
H1347       H  0.89651733  0.52126452  0.52515250     0.10100
H1348       H  0.87589518  0.52926272  0.55888882     0.12200
H1349       H  0.93092700  0.59316161  0.06367116     0.08800
H1350       H  0.95162442  0.58714453  0.02772212     0.11600
C1351       C  0.98122700  0.46192144  0.82069615    -0.03000
C1352       C  0.98891179  0.45112015  0.80660065    -0.05600
C1353       C  0.97658254  0.43569525  0.78586952    -0.20700
C1354       C  0.95633085  0.43075437  0.77841321     0.25000
C1355       C  0.94835607  0.44100430  0.79355943    -0.18300
C1356       C  0.96066112  0.45638899  0.81430470    -0.08200
C1357       C  0.94395278  0.41451712  0.75552507    -0.18500
C1358       C  0.92715842  0.41244566  0.73964888    -0.23300
C1359       C  0.91393976  0.39544780  0.71848201     0.27100
C1360       C  0.89304518  0.38943604  0.71470632    -0.20100
C1361       C  0.87958402  0.37271695  0.69695149    -0.09700
C1362       C  0.88684162  0.36198363  0.68177004    -0.10300
C1363       C  0.90790698  0.36846747  0.68409533    -0.03200
C1364       C  0.92138407  0.38506845  0.70229848    -0.18300
H1365       H  0.00469690  0.45501584  0.81077273     0.10800
H1366       H  0.98309592  0.42791679  0.77498961     0.10800
H1367       H  0.93261975  0.43723646  0.78968102     0.10500
H1368       H  0.95416651  0.46430820  0.82477184     0.11600
H1369       H  0.94897972  0.40388649  0.75179385     0.11700
H1370       H  0.92210941  0.42306119  0.74325903     0.13600
H1371       H  0.88688723  0.39720155  0.72661106     0.10100
H1372       H  0.86330390  0.36773588  0.69583552     0.12200
H1373       H  0.91371592  0.36017805  0.67286458     0.08800
H1374       H  0.93749638  0.38957965  0.70379824     0.11600
C1375       C  0.97309526  0.45823195  0.94515774    -0.03000
C1376       C  0.97849367  0.44502991  0.96347361    -0.05600
C1377       C  0.96382532  0.42766864  0.98460928    -0.20700
C1378       C  0.94342229  0.42308466  0.98827061     0.25000
C1379       C  0.93773325  0.43585143  0.96920492    -0.18300
C1380       C  0.95244247  0.45326231  0.94790480    -0.08200
C1381       C  0.92873320  0.40483966  0.01214790    -0.18500
C1382       C  0.91234097  0.40319598  0.02749204    -0.23300
C1383       C  0.89938266  0.38596414  0.05407675     0.27100
C1384       C  0.88979854  0.38981361  0.07880713    -0.20100
C1385       C  0.87849410  0.37440066  0.10516926    -0.09700
C1386       C  0.87842675  0.35460998  0.60825467    -0.10300
C1387       C  0.88744196  0.35035086  0.58325473    -0.03200
C1388       C  0.89658555  0.36595273  0.05550622    -0.18300
H1389       H  0.99424360  0.44838206  0.96213357     0.10800
H1390       H  0.96861257  0.41804786  0.99881088     0.10800
H1391       H  0.92198713  0.43246528  0.97063846     0.10500
H1392       H  0.94774073  0.46305353  0.93406812     0.11600
H1393       H  0.93275207  0.39322497  0.01945440     0.11700
H1394       H  0.90942217  0.41578322  0.02265780     0.13600
H1395       H  0.89146477  0.40497096  0.07812375     0.10100
H1396       H  0.87323962  0.37765703  0.62456568     0.12200
H1397       H  0.88596574  0.33526164  0.58459734     0.08800
H1398       H  0.90312873  0.36212709  0.03637913     0.11600
C1399       C  0.07543617  0.51147606  0.79350434    -0.03000
C1400       C  0.09262743  0.51245499  0.80920618    -0.05600
C1401       C  0.10735519  0.51116555  0.79140314    -0.20700
C1402       C  0.10546257  0.50931519  0.75745132     0.25000
C1403       C  0.08796551  0.50773594  0.74197783    -0.18300
C1404       C  0.07312036  0.50873468  0.75980282    -0.08200
C1405       C  0.12156436  0.50840893  0.73902220    -0.18500
C1406       C  0.12679862  0.51581419  0.70684644    -0.23300
C1407       C  0.14284686  0.51476931  0.68849080     0.27100
C1408       C  0.15476930  0.53036980  0.66243536    -0.20100
C1409       C  0.17033332  0.52997066  0.64538457    -0.09700
C1410       C  0.17395622  0.51369764  0.65365244    -0.10300
C1411       C  0.16149616  0.49772814  0.67892995    -0.03200
C1412       C  0.14613189  0.49821243  0.69610428    -0.18300
H1413       H  0.09488962  0.51456967  0.83508761     0.10800
H1414       H  0.12055141  0.51212914  0.80402152     0.10800
H1415       H  0.08564288  0.50561414  0.71611617     0.10500
H1416       H  0.06004052  0.50784373  0.74691025     0.11600
H1417       H  0.13007916  0.50239986  0.75288146     0.11700
H1418       H  0.11985453  0.52382538  0.69386682     0.13600
H1419       H  0.15249053  0.54326420  0.65598295     0.10100
H1420       H  0.18009909  0.54286984  0.62689691     0.12200
H1421       H  0.16393490  0.48497679  0.68585968     0.08800
H1422       H  0.13683044  0.48557788  0.71529520     0.11600
C1423       C  0.08566285  0.51512437  0.93693137    -0.03000
C1424       C  0.07971827  0.49556958  0.95444682    -0.05600
C1425       C  0.09351029  0.49339475  0.97559152    -0.20700
C1426       C  0.11366000  0.51064325  0.97987392     0.25000
C1427       C  0.11976743  0.53018072  0.96186720    -0.18300
C1428       C  0.10597156  0.53233437  0.94059961    -0.08200
C1429       C  0.12705799  0.50770445  0.00482613    -0.18500
C1430       C  0.14782699  0.52131798  0.00713494    -0.23300
C1431       C  0.16106229  0.51909695  0.03335126     0.27100
C1432       C  0.18263599  0.53424945  0.03203229    -0.20100
C1433       C  0.19555983  0.53373659  0.05691718    -0.09700
C1434       C  0.18723568  0.51973922  0.57983249    -0.10300
C1435       C  0.17064711  0.50157745  0.56824645    -0.03200
C1436       C  0.15289218  0.50303830  0.06008369    -0.18300
H1437       H  0.06419319  0.48199785  0.95241599     0.10800
H1438       H  0.08824102  0.47816715  0.98914904     0.10800
H1439       H  0.13485900  0.54406144  0.96484228     0.10500
H1440       H  0.11099489  0.54770647  0.92787507     0.11600
H1441       H  0.11912830  0.49345127  0.02182049     0.11700
H1442       H  0.15578765  0.53500422  0.98895593     0.13600
H1443       H  0.18949451  0.54685241  0.01195239     0.10100
H1444       H  0.21191122  0.54603303  0.05573542     0.12200
H1445       H  0.16727675  0.48627367  0.57880227     0.08800
H1446       H  0.13651571  0.49098208  0.06266487     0.11600
C1447       C  0.08148570  0.58275257  0.79675259    -0.03000
C1448       C  0.10274501  0.59853805  0.79565310    -0.05600
C1449       C  0.11068853  0.61618955  0.77211626    -0.20700
C1450       C  0.09759604  0.61840051  0.74919245     0.25000
C1451       C  0.07622637  0.60270708  0.75076003    -0.18300
C1452       C  0.06833707  0.58508010  0.77411499    -0.08200
C1453       C  0.10687796  0.63734482  0.72442615    -0.18500
C1454       C  0.09752029  0.63902963  0.69665008    -0.23300
C1455       C  0.10757157  0.65765017  0.67133048     0.27100
C1456       C  0.09499108  0.66156530  0.64957036    -0.20100
C1457       C  0.10400056  0.67878474  0.62507914    -0.09700
C1458       C  0.12571580  0.69205909  0.62175591    -0.10300
C1459       C  0.13830698  0.68818576  0.64324883    -0.03200
C1460       C  0.12938577  0.67105745  0.66759346    -0.18300
H1461       H  0.11324308  0.59718883  0.81278661     0.10800
H1462       H  0.12719056  0.62808922  0.77162073     0.10800
H1463       H  0.06536521  0.60392823  0.73445591     0.10500
H1464       H  0.05181432  0.57329020  0.77448444     0.11600
H1465       H  0.12231852  0.65026116  0.72924735     0.11700
H1466       H  0.08196372  0.62640375  0.69175657     0.13600
H1467       H  0.07816205  0.65139975  0.65177022     0.10100
H1468       H  0.09409930  0.68180813  0.60891735     0.12200
H1469       H  0.15513001  0.69847550  0.64105527     0.08800
H1470       H  0.13971323  0.66827649  0.68292808     0.11600
C1471       C  0.06991448  0.57756235  0.93943528    -0.03000
C1472       C  0.06961567  0.57559261  0.97402291    -0.05600
C1473       C  0.08128863  0.59323215  0.99078337    -0.20700
C1474       C  0.09367065  0.61337774  0.97357778     0.25000
C1475       C  0.09365965  0.61547503  0.93883181    -0.18300
C1476       C  0.08184168  0.59773702  0.92198954    -0.08200
C1477       C  0.10641708  0.63130874  0.99331980    -0.18500
C1478       C  0.11858902  0.65169588  0.98098940    -0.23300
C1479       C  0.13020267  0.66873854  0.00258288     0.27100
C1480       C  0.13349476  0.68865578  0.99259612    -0.20100
C1481       C  0.14265408  0.70440367  0.01365951    -0.09700
C1482       C  0.14892585  0.70062909  0.04498919    -0.10300
C1483       C  0.14707760  0.68125810  0.05396982    -0.03200
C1484       C  0.13777697  0.66544436  0.03305543    -0.18300
H1485       H  0.06058086  0.56031110  0.98826353     0.10800
H1486       H  0.08085469  0.59103687  0.01747246     0.10800
H1487       H  0.10292646  0.63058025  0.92436966     0.10500
H1488       H  0.08252036  0.59975939  0.89530368     0.11600
H1489       H  0.10524868  0.62740831  0.01988692     0.11700
H1490       H  0.11912424  0.65638465  0.95481885     0.13600
H1491       H  0.12814556  0.69174520  0.96903979     0.10100
H1492       H  0.14398765  0.71925307  0.00615176     0.12200
H1493       H  0.14152644  0.67507654  0.58654291     0.08800
H1494       H  0.13644187  0.65063551  0.04090817     0.11600
C1495       C  0.74167604  0.22593728  0.94970811    -0.03000
C1496       C  0.74649427  0.21386039  0.97237779    -0.05600
C1497       C  0.75950591  0.22292832  0.99869644    -0.20700
C1498       C  0.76806584  0.24423730  0.00263456     0.25000
C1499       C  0.77134305  0.25532339  0.47327404    -0.18300
C1500       C  0.76001120  0.24508457  0.44664803    -0.08200
C1501       C  0.78641540  0.25443863  0.52974609    -0.18500
C1502       C  0.79980233  0.27548117  0.52918284    -0.23300
C1503       C  0.81362191  0.28612205  0.55656310     0.27100
C1504       C  0.82145115  0.30757073  0.55765981    -0.20100
C1505       C  0.83459506  0.31837966  0.58262196    -0.09700
C1506       C  0.84050174  0.30806650  0.60692646    -0.10300
C1507       C  0.83304140  0.28671562  0.60549961    -0.03200
C1508       C  0.81982406  0.27586440  0.58059875    -0.18300
H1509       H  0.74114467  0.19783209  0.96878864     0.10800
H1510       H  0.76355032  0.21351048  0.01525275     0.10800
H1511       H  0.77878798  0.27216662  0.47093933     0.10500
H1512       H  0.75952718  0.25446579  0.42498398     0.11600
H1513       H  0.78252785  0.24361281  0.05037143     0.11700
H1514       H  0.80084021  0.28588377  0.50785534     0.13600
H1515       H  0.81703235  0.31593555  0.53943583     0.10100
H1516       H  0.83949113  0.33459414  0.58350279     0.12200
H1517       H  0.83733256  0.27833150  0.62390510     0.08800
H1518       H  0.81188995  0.25892528  0.07930981     0.11600
C1519       C  0.53160725  0.22786834  0.91494867    -0.03000
C1520       C  0.51233178  0.21929823  0.93150840    -0.05600
C1521       C  0.50560536  0.23241942  0.93916687    -0.20700
C1522       C  0.51797554  0.25432886  0.93043650     0.25000
C1523       C  0.53819267  0.26296528  0.91694978    -0.18300
C1524       C  0.54490003  0.24985636  0.90948194    -0.08200
C1525       C  0.50837073  0.26703149  0.93292792    -0.18500
C1526       C  0.51818471  0.28808327  0.92505224    -0.23300
C1527       C  0.50727307  0.29958198  0.92584032     0.27100
C1528       C  0.51813773  0.32006164  0.93496282    -0.20100
C1529       C  0.50770169  0.33039622  0.93902085    -0.09700
C1530       C  0.48633915  0.32067844  0.93308599    -0.10300
C1531       C  0.47584794  0.30082816  0.92167836    -0.03200
C1532       C  0.48618948  0.29040238  0.91796329    -0.18300
H1533       H  0.50162793  0.20243160  0.93563780     0.10800
H1534       H  0.49006809  0.22526843  0.94995238     0.10800
H1535       H  0.54851185  0.27964082  0.91011989     0.10500
H1536       H  0.55987340  0.25687716  0.89670169     0.11600
H1537       H  0.49205306  0.25838822  0.94094307     0.11700
H1538       H  0.53476776  0.29748237  0.91915395     0.13600
H1539       H  0.53441735  0.32754601  0.94095179     0.10100
H1540       H  0.51592171  0.34513699  0.94950934     0.12200
H1541       H  0.45927461  0.29283067  0.91758652     0.08800
H1542       H  0.47750977  0.27493689  0.90977001     0.11600
C1543       C  0.70778251  0.17982611  0.43818867    -0.03000
C1544       C  0.69458852  0.16135018  0.92968745    -0.05600
C1545       C  0.68415078  0.14290416  0.45786940    -0.20700
C1546       C  0.67444759  0.14806337  0.48028868     0.25000
C1547       C  0.68208582  0.16944657  0.48224271    -0.18300
C1548       C  0.69865896  0.18520287  0.46131007    -0.08200
C1549       C  0.65560763  0.13065462  0.49937011    -0.18500
C1550       C  0.64902436  0.13240253  0.52829764    -0.23300
C1551       C  0.63008280  0.11489402  0.54699635     0.27100
C1552       C  0.62911521  0.11434664  0.58130487    -0.20100
C1553       C  0.61116528  0.09893306  0.59970152    -0.09700
C1554       C  0.59353569  0.08398058  0.58408874    -0.10300
C1555       C  0.59449596  0.08428304  0.54976477    -0.03200
C1556       C  0.61265569  0.09953089  0.53135402    -0.18300
H1557       H  0.70097396  0.15884894  0.90863556     0.10800
H1558       H  0.67860652  0.12662111  0.45581055     0.10800
H1559       H  0.67472219  0.17403516  0.49871003     0.10500
H1560       H  0.70368728  0.20147729  0.46200511     0.11600
H1561       H  0.64734268  0.11555298  0.48973298     0.11700
H1562       H  0.65832325  0.14682525  0.53961351     0.13600
H1563       H  0.64224331  0.12604312  0.59390600     0.10100
H1564       H  0.61080746  0.09926226  0.62609509     0.12200
H1565       H  0.58109305  0.07297355  0.53714319     0.08800
H1566       H  0.61268934  0.09973024  0.50484755     0.11600
C1567       C  0.69518178  0.18420903  0.86159347    -0.03000
C1568       C  0.67446173  0.17738506  0.86945545    -0.05600
C1569       C  0.65821697  0.16327741  0.85085952    -0.20700
C1570       C  0.66236124  0.15540849  0.82456901     0.25000
C1571       C  0.68313644  0.16210912  0.81699891    -0.18300
C1572       C  0.69939295  0.17653943  0.83516948    -0.08200
C1573       C  0.64498187  0.14166347  0.80383937    -0.18500
C1574       C  0.64459915  0.12679939  0.78796709    -0.23300
C1575       C  0.62757587  0.11427225  0.76574178     0.27100
C1576       C  0.62059993  0.09310112  0.76389746    -0.20100
C1577       C  0.60426416  0.08108067  0.74338320    -0.09700
C1578       C  0.59509465  0.09027109  0.72366356    -0.10300
C1579       C  0.60268319  0.11167022  0.72472137    -0.03200
C1580       C  0.61861875  0.12348188  0.74557851    -0.18300
H1581       H  0.67093154  0.18341364  0.88939757     0.10800
H1582       H  0.64237781  0.15859219  0.85686226     0.10800
H1583       H  0.68692457  0.15682364  0.79633055     0.10500
H1584       H  0.71532404  0.18186100  0.82847415     0.11600
H1585       H  0.63176511  0.14358123  0.80219105     0.11700
H1586       H  0.65664751  0.12325449  0.79211736     0.13600
H1587       H  0.62749213  0.08575261  0.77889134     0.10100
H1588       H  0.59880563  0.06466905  0.74297600     0.12200
H1589       H  0.59600386  0.11927461  0.70982065     0.08800
H1590       H  0.62405512  0.13990973  0.74566449     0.11600
C1591       C  0.52621535  0.18312054  0.93526786    -0.03000
C1592       C  0.53957757  0.18988304  0.44387501    -0.05600
C1593       C  0.54145282  0.17927092  0.47277976    -0.20700
C1594       C  0.52507322  0.15891999  0.48461758     0.25000
C1595       C  0.50647553  0.14962012  0.46717697    -0.18300
C1596       C  0.51096910  0.16156838  0.94152265    -0.08200
C1597       C  0.52885090  0.14736628  0.51319185    -0.18500
C1598       C  0.51367893  0.13004721  0.53149487    -0.23300
C1599       C  0.51777207  0.11703886  0.55703213     0.27100
C1600       C  0.50181971  0.09598009  0.56570618    -0.20100
C1601       C  0.50551098  0.08250132  0.58683158    -0.09700
C1602       C  0.52524775  0.08982041  0.60006378    -0.10300
C1603       C  0.54083708  0.11120970  0.59317399    -0.03200
C1604       C  0.53715378  0.12470199  0.57196639    -0.18300
H1605       H  0.55272009  0.20518563  0.43454311     0.10800
H1606       H  0.55600528  0.18676295  0.48545338     0.10800
H1607       H  0.49362809  0.13382881  0.47479447     0.10500
H1608       H  0.49976074  0.15360820  0.92311431     0.11600
H1609       H  0.54503740  0.15314595  0.51830119     0.11700
H1610       H  0.49748945  0.12427844  0.52637277     0.13600
H1611       H  0.48665177  0.08967979  0.55502624     0.10100
H1612       H  0.49310057  0.06614320  0.59182953     0.12200
H1613       H  0.55614801  0.11738345  0.60324314     0.08800
H1614       H  0.54965012  0.14098786  0.56712741     0.11600
C1615       C  0.51962741  0.06930840  0.74207904    -0.03000
C1616       C  0.51781481  0.08566314  0.72624050    -0.05600
C1617       C  0.51384573  0.09772871  0.74460282    -0.20700
C1618       C  0.51183213  0.09387167  0.77914822     0.25000
C1619       C  0.51244660  0.07672655  0.79488498    -0.18300
C1620       C  0.51632604  0.06458907  0.77650273    -0.08200
C1621       C  0.50976493  0.10851188  0.79761404    -0.18500
C1622       C  0.51576879  0.11203037  0.82888006    -0.23300
C1623       C  0.51697636  0.12945465  0.84447012     0.27100
C1624       C  0.53191783  0.13909570  0.86832601    -0.20100
C1625       C  0.53546415  0.15743110  0.87986825    -0.09700
C1626       C  0.52393293  0.16617996  0.86789528    -0.10300
C1627       C  0.50806471  0.15577038  0.84587206    -0.03200
C1628       C  0.50442535  0.13746654  0.83454764    -0.18300
H1629       H  0.52019472  0.08963055  0.69977469     0.10800
H1630       H  0.51317073  0.11067893  0.73182632     0.10800
H1631       H  0.51021742  0.07278988  0.82133096     0.10500
H1632       H  0.51739247  0.05191004  0.78940906     0.11600
H1633       H  0.50525733  0.11841610  0.78348823     0.11700
H1634       H  0.52221792  0.10360641  0.84208384     0.13600
H1635       H  0.54162148  0.13309080  0.87668857     0.10100
H1636       H  0.54788788  0.16536569  0.89669221     0.12200
H1637       H  0.49895960  0.16229254  0.83648768     0.08800
H1638       H  0.49215317  0.13001215  0.81734939     0.11600
C1639       C  0.32684429  0.84022959  0.97397068    -0.03000
C1640       C  0.31759816  0.84957016  0.98790677    -0.05600
C1641       C  0.29826492  0.83697892  0.00487073    -0.20700
C1642       C  0.28797901  0.81497030  0.00788650     0.25000
C1643       C  0.29261328  0.80994431  0.49905950    -0.18300
C1644       C  0.31182903  0.82358824  0.48220764    -0.08200
C1645       C  0.26566901  0.80207522  0.01899762    -0.18500
C1646       C  0.24599783  0.78346321  0.51523654    -0.23300
C1647       C  0.22326297  0.77067990  0.52400797     0.27100
C1648       C  0.21344317  0.74897474  0.53343123    -0.20100
C1649       C  0.19242427  0.73691815  0.54414435    -0.09700
C1650       C  0.18073052  0.74631044  0.54503006    -0.10300
C1651       C  0.19792761  0.76968602  0.03258295    -0.03200
C1652       C  0.21873456  0.78123834  0.02123603    -0.18300
H1653       H  0.32404548  0.86627788  0.98238423     0.10800
H1654       H  0.29052408  0.84435487  0.01304037     0.10800
H1655       H  0.28667941  0.79331734  0.50195306     0.10500
H1656       H  0.31951581  0.81699283  0.47112858     0.11600
H1657       H  0.25995777  0.80907820  0.03397936     0.11700
H1658       H  0.25237532  0.77576955  0.50370168     0.13600
H1659       H  0.22232945  0.74154338  0.53407413     0.10100
H1660       H  0.18579711  0.72061001  0.55370559     0.12200
H1661       H  0.19028423  0.77803178  0.03598290     0.08800
H1662       H  0.22646220  0.79810652  0.01557713     0.11600
C1663       C  0.47494521  0.97979315  0.59826504    -0.03000
C1664       C  0.46119422  0.98574306  0.58548375    -0.05600
C1665       C  0.44381125  0.97225885  0.56807803    -0.20700
C1666       C  0.43940924  0.95228530  0.56289332     0.25000
C1667       C  0.45273715  0.94593150  0.57663484    -0.18300
C1668       C  0.47027112  0.95953447  0.59410701    -0.08200
C1669       C  0.42156903  0.93956068  0.54140713    -0.18500
C1670       C  0.41391460  0.91941798  0.53609742    -0.23300
C1671       C  0.39693065  0.90796599  0.51254216     0.27100
C1672       C  0.38537187  0.88583281  0.51580363    -0.20100
C1673       C  0.37011726  0.87465457  0.49316883    -0.09700
C1674       C  0.36625061  0.88536351  0.46640361    -0.10300
C1675       C  0.37758811  0.90743736  0.46332989    -0.03200
C1676       C  0.39275561  0.91859797  0.48589404    -0.18300
H1677       H  0.46416428  0.00116198  0.58807980     0.10800
H1678       H  0.43396338  0.97772242  0.55794719     0.10800
H1679       H  0.45016184  0.93080604  0.57320045     0.10500
H1680       H  0.48049749  0.95440230  0.60354673     0.11600
H1681       H  0.41429018  0.94746888  0.52935856     0.11700
H1682       H  0.41995233  0.91072388  0.54965896     0.13600
H1683       H  0.38829790  0.87714441  0.53579423     0.10100
H1684       H  0.36181045  0.85767081  0.49595237     0.12200
H1685       H  0.37487174  0.91611851  0.44307055     0.08800
H1686       H  0.40155452  0.93556001  0.48163335     0.11600
C1687       C  0.47791270  0.98356873  0.71933218    -0.03000
C1688       C  0.46532223  0.99080095  0.72834037    -0.05600
C1689       C  0.44909289  0.97880060  0.75182520    -0.20700
C1690       C  0.44532124  0.95951964  0.76706474     0.25000
C1691       C  0.45712251  0.95169003  0.75674045    -0.18300
C1692       C  0.47329228  0.96363631  0.73304697    -0.08200
C1693       C  0.42877636  0.94790684  0.79324976    -0.18500
C1694       C  0.42915105  0.93474478  0.81791090    -0.23300
C1695       C  0.41208097  0.92211295  0.84327403     0.27100
C1696       C  0.41566857  0.91226464  0.87164703    -0.20100
C1697       C  0.39926061  0.89806344  0.89397566    -0.09700
C1698       C  0.37905317  0.89354599  0.88813352    -0.10300
C1699       C  0.37563738  0.90413700  0.86077715    -0.03200
C1700       C  0.39190704  0.91819979  0.83846700    -0.18300
H1701       H  0.46845832  0.00607281  0.71808385     0.10800
H1702       H  0.43993144  0.98494531  0.75896720     0.10800
H1703       H  0.45403840  0.93646532  0.76707070     0.10500
H1704       H  0.48270178  0.95764034  0.72651639     0.11600
H1705       H  0.41657640  0.95128861  0.79287629     0.11700
H1706       H  0.44254363  0.93313139  0.81975953     0.13600
H1707       H  0.43102012  0.91490112  0.87582269     0.10100
H1708       H  0.40209893  0.88966100  0.91455396     0.12200
H1709       H  0.36004705  0.90060621  0.85568065     0.08800
H1710       H  0.38815614  0.92488953  0.81669259     0.11600
C1711       C  0.60025349  0.88458042  0.91944183    -0.03000
C1712       C  0.58012681  0.87147650  0.90815250    -0.05600
C1713       C  0.57320367  0.85083284  0.90274677    -0.20700
C1714       C  0.58612481  0.84287486  0.90916896     0.25000
C1715       C  0.60679009  0.85653411  0.91779272    -0.18300
C1716       C  0.61376717  0.87715651  0.92278318    -0.08200
C1717       C  0.57774374  0.82031072  0.90701126    -0.18500
C1718       C  0.58385432  0.80919497  0.92696095    -0.23300
C1719       C  0.57711786  0.78713898  0.92347750     0.27100
C1720       C  0.59054360  0.78016614  0.93326386    -0.20100
C1721       C  0.58669750  0.76105586  0.92466303    -0.09700
C1722       C  0.56926367  0.74863220  0.90642503    -0.10300
C1723       C  0.55458543  0.75438833  0.90019100    -0.03200
C1724       C  0.55840933  0.77343847  0.90870608    -0.18300
H1725       H  0.56924321  0.87658993  0.90571202     0.10800
H1726       H  0.55733917  0.84069744  0.89538885     0.10800
H1727       H  0.61747468  0.85119783  0.92136977     0.10500
H1728       H  0.62950819  0.88702530  0.93082300     0.11600
H1729       H  0.56614368  0.81279446  0.88877422     0.11700
H1730       H  0.59537172  0.81697815  0.94522714     0.13600
H1731       H  0.60489279  0.79027885  0.94520615     0.10100
H1732       H  0.59841233  0.75712165  0.92916652     0.12200
H1733       H  0.54108861  0.74505359  0.88592090     0.08800
H1734       H  0.54720484  0.77779763  0.90214808     0.11600
C1735       C  0.60014601  0.94579167  0.45187112    -0.03000
C1736       C  0.57928570  0.94003618  0.45311978    -0.05600
C1737       C  0.57424033  0.95477450  0.45795780    -0.20700
C1738       C  0.58992854  0.97535837  0.46289044     0.25000
C1739       C  0.61094049  0.98144727  0.46006561    -0.18300
C1740       C  0.61597924  0.96669698  0.45474507    -0.08200
C1741       C  0.58353745  0.98895481  0.47486145    -0.18500
C1742       C  0.59427488  0.00200225  0.49763266    -0.23300
C1743       C  0.58455675  0.00921419  0.51923649     0.27100
C1744       C  0.59110986  0.01194769  0.55170269    -0.20100
C1745       C  0.58039876  0.01547275  0.57460527    -0.09700
C1746       C  0.56301386  0.01662570  0.56542737    -0.10300
C1747       C  0.55727839  0.01533334  0.53236061    -0.03200
C1748       C  0.56794545  0.01163251  0.50941738    -0.18300
H1749       H  0.56680048  0.92382667  0.45275634     0.10800
H1750       H  0.55795532  0.94965082  0.46033003     0.10800
H1751       H  0.62342704  0.99733345  0.46308764     0.10500
H1752       H  0.63218508  0.97136970  0.45416496     0.11600
H1753       H  0.56780451  0.98505642  0.46978792     0.11700
H1754       H  0.60918995  0.00431287  0.50487390     0.13600
H1755       H  0.60394703  0.01032024  0.55984134     0.10100
H1756       H  0.58542884  0.01673790  0.59977273     0.12200
H1757       H  0.54412981  0.01646652  0.52447053     0.08800
H1758       H  0.56288859  0.01025165  0.48429658     0.11600
C1759       C  0.59140395  0.92024511  0.89365569    -0.03000
C1760       C  0.60593180  0.93125284  0.86718983    -0.05600
C1761       C  0.60105519  0.94010013  0.83919119    -0.20700
C1762       C  0.58168057  0.93835832  0.83745410     0.25000
C1763       C  0.56649777  0.92570429  0.86277868    -0.18300
C1764       C  0.57135254  0.91671867  0.89059910    -0.08200
C1765       C  0.57819373  0.95070677  0.80987580    -0.18500
C1766       C  0.56614059  0.95854084  0.81377557    -0.23300
C1767       C  0.56313347  0.97244950  0.78837004     0.27100
C1768       C  0.57183381  0.97830276  0.75600380    -0.20100
C1769       C  0.56782193  0.99095451  0.73321909    -0.09700
C1770       C  0.55507047  0.99803853  0.74219495    -0.10300
C1771       C  0.54681873  0.99258118  0.77464771    -0.03200
C1772       C  0.55077990  0.97996212  0.79732873    -0.18300
H1773       H  0.62418788  0.93521182  0.37654603     0.10800
H1774       H  0.61290237  0.94943377  0.81980297     0.10800
H1775       H  0.55105818  0.92317718  0.86159317     0.10500
H1776       H  0.55976964  0.90779280  0.91039623     0.11600
H1777       H  0.58716077  0.95477680  0.78711536     0.11700
H1778       H  0.55844181  0.95519665  0.83766034     0.13600
H1779       H  0.58145046  0.97299778  0.74778413     0.10100
H1780       H  0.57436434  0.99483138  0.70835179     0.12200
H1781       H  0.53683937  0.99764475  0.78238288     0.08800
H1782       H  0.54388644  0.97582790  0.82200158     0.11600
loop_ 
_geom_bond_atom_site_label_1 
_geom_bond_atom_site_label_2 
_geom_bond_distance 
_geom_bond_site_symmetry_2 
_ccdc_geom_bond_type 
N1            C2   1.362       .  A
N1          C896   1.357       .  A
N1          C868   1.440       .  S
C2          C820   1.490       .  S
C2          C894   1.389       .  A
C3            C4   1.373       .  A
C3          C893   1.388       .  A
C3            H6   1.082       .  S
C4            C5   1.377       .  A
C4            H7   1.082       .  S
C5          N892   1.355       .  A
C5          C844   1.472       .  S
N8           C12   1.364       .  A
N8            C9   1.364       .  A
N8         C1674   1.450       .  S
C9          C748   1.475       .  S
C9           C10   1.382       .  A
C10          C11   1.366       .  A
C10          H13   1.083       .  S
C11          C12   1.380       .  A
C11          H14   1.082       .  S
C12         C807   1.477       .  S
O15          C23   1.262       .  A
O15         Co35   2.003       .  S
O16          C24   1.279       .  A
O16         Co36   2.030       .  S
O17          C25   1.264       .  A
O17         Co37   1.965       .  S
O18          C26   1.264       .  A
O18         Co38   1.889       .  S
O19          C25   1.273       .  A
O19         Co36   2.014       .  S
O20          C26   1.300       .  A
O20         Co35   2.122       .  S
O21          C24   1.270       .  A
O21         Co38   1.970       .  S
O22          C23   1.260       .  A
O22         Co37   1.988       .  S
C23         C879   1.488   1_545  S
C24         C663   1.485       .  S
C25         C855   1.477       .  S
C26         C687   1.486       .  S
O27          C40   1.263       .  A
O27         Co35   1.889       .  S
O28          C41   1.263   1_545  A
O28         Co36   1.969       .  S
O29          C42   1.280       .  A
O29         Co37   2.034   1_565  S
O30          C43   1.265       .  A
O30         Co38   2.013       .  S
O31          C43   1.259       .  A
O31         Co36   1.979       .  S
O32          C42   1.268   1_545  A
O32         Co35   1.968       .  S
O33          C40   1.296       .  A
O33         Co38   2.105       .  S
O34          C41   1.276       .  A
O34         Co37   2.040   1_565  S
Co35         O39   2.002       .  S
Co36         O39   2.030       .  S
Co37         O39   2.040       .  S
Co38         O39   2.006       .  S
C40         C724   1.476       .  S
C41         C772   1.495       .  S
C42         C796   1.478       .  S
C43         C711   1.488       .  S
N44          C48   1.356       .  A
N44          C45   1.358       .  A
N44         C700   1.440       .  S
C45         C628   1.477       .  S
C45          C46   1.385       .  A
C46          C47   1.372       .  A
C46          H49   1.082       .  S
C47          C48   1.380       .  A
C47          H50   1.082       .  S
C48         C735   1.472       .  S
N51          C55   1.362       .  A
N51          C52   1.362       .  A
N51        C1543   1.440       .  S
C52         C604   1.491       .  S
C52          C53   1.386       .  A
C53          C54   1.374       .  A
C53          H56   1.082       .  S
C54          C55   1.380       .  A
C54          H57   1.082       .  S
C55         C676   1.488       .  S
O58          C66   1.276       .  A
O58         Co78   2.015       .  S
O59          C67   1.262       .  A
O59         Co79   2.004       .  S
O60          C68   1.268       .  A
O60         Co80   1.900       .  S
O61          C69   1.258       .  A
O61         Co81   1.957   1_455  S
O62          C68   1.294       .  A
O62         Co79   2.106       .  S
O63          C69   1.276       .  A
O63         Co78   2.048       .  S
O64          C67   1.258       .  A
O64         Co81   1.977   1_455  S
O65          C66   1.270       .  A
O65         Co80   1.980       .  S
C66         C580   1.485       .  S
C67         C423   1.478       .  S
C68         C556   1.479       .  S
C69         C436   1.486   1_455  S
O70          C83   1.265   1_455  A
O70         Co78   1.966       .  S
O71          C84   1.266       .  A
O71         Co79   1.888       .  S
O72          C85   1.268       .  A
O72         Co80   2.013       .  S
O73          C86   1.280       .  A
O73         Co81   2.028       .  S
O74          C86   1.274   1_455  A
O74         Co79   1.979       .  S
O75          C85   1.266       .  A
O75         Co78   1.990       .  S
O76          C83   1.276       .  A
O76         Co81   2.032       .  S
O77          C84   1.299       .  A
O77         Co80   2.111       .  S
Co78         O82   2.045       .  S
Co79         O82   2.005       .  S
Co80         O82   2.012       .  S
Co81         O82   2.023   1_655  S
C83         C484   1.488       .  S
C84         C508   1.483       .  S
C85         C532   1.494       .  S
C86         C460   1.492       .  S
N87          C91   1.363       .  A
N87          C88   1.361       .  A
N87         C543   1.447       .  S
C88         C399   1.475       .  S
C88          C89   1.380       .  A
C89          C90   1.371       .  A
C89          H92   1.082       .  S
C90          C91   1.383       .  A
C90          H93   1.082       .  S
C91         C519   1.484       .  S
N94          C98   1.361       .  A
N94          C95   1.365       .  A
N94         C495   1.442       .  S
C95         C615   1.495       .  S
C95          C96   1.385       .  A
C96          C97   1.375       .  A
C96          H99   1.082       .  S
C97          C98   1.380       .  A
C97         H100   1.082       .  S
C98         C471   1.483       .  S
N101        C105   1.360       .  A
N101        C102   1.363       .  A
N101       C1338   1.443       .  S
C102        C364   1.485       .  S
C102        C103   1.386       .  A
C103        C104   1.369       .  A
C103        H106   1.082       .  S
C104        C105   1.378       .  A
C104        H107   1.082       .  S
C105        C412   1.478       .  S
N108        C112   1.357       .  A
N108        C109   1.359       .  A
N108       C1482   1.445       .  S
C109        C759   1.487       .  S
C109        C110   1.387       .  A
C110        C111   1.372       .  A
C110        H113   1.082       .  S
C111        C112   1.378       .  A
C111        H114   1.082       .  S
C112        C567   1.471       .  S
O115        C123   1.276       .  A
O115       Co135   2.009       .  S
O116        C124   1.259       .  A
O116       Co136   2.000       .  S
O117        C125   1.269       .  A
O117       Co137   1.900       .  S
O118        C126   1.262       .  A
O118       Co138   1.959       .  S
O119        C125   1.297       .  A
O119       Co136   2.105       .  S
O120        C126   1.279       .  A
O120       Co135   2.046       .  S
O121        C124   1.257       .  A
O121       Co138   1.978       .  S
O122        C123   1.271       .  A
O122       Co137   1.980       .  S
C123        C351   1.482       .  S
C124        C183   1.480       .  S
C125        C316   1.487       .  S
C126        C196   1.484       .  S
O127        C140   1.262       .  A
O127       Co135   1.972       .  S
O128        C141   1.260       .  A
O128       Co136   1.882       .  S
O129        C142   1.268       .  A
O129       Co137   2.011       .  S
O130        C143   1.281       .  A
O130       Co138   2.031       .  S
O131        C143   1.267       .  A
O131       Co136   1.963       .  S
O132        C142   1.265       .  A
O132       Co135   1.990       .  S
O133        C140   1.273       .  A
O133       Co138   2.029       .  S
O134        C141   1.298       .  A
O134       Co137   2.124       .  S
Co135       O139   2.028       .  S
Co136       O139   1.999       .  S
Co137       O139   2.014       .  S
Co138       O139   2.034       .  S
C140        C244   1.489       .  S
C141        C279   1.481       .  S
C142        C292   1.490       .  S
C143        C231   1.480       .  S
N144        C148   1.360       .  A
N144        C145   1.361       .  A
N144        C327   1.444       .  S
C145        C639   1.479       .  S
C145        C146   1.382       .  A
C146        C147   1.370       .  A
C146        H149   1.083       .  S
C147        C148   1.383       .  A
C147       H1041   1.082       .  S
C148        C340   1.485       .  S
H150       C1038   1.082   1_554  S
N151        C155   1.361       .  A
N151        C152   1.366       .  A
N151        C207   1.443       .  S
C152        C388   1.490       .  S
C152        C153   1.386       .  A
C153        C154   1.369       .  A
C153        H156   1.082       .  S
C154        C155   1.380       .  A
C154        H157   1.082       .  S
C155        C172   1.482       .  S
N158        C162   1.363       .  A
N158        C159   1.364       .  A
N158        C303   1.446       .  S
C159        C375   1.485       .  S
C159        C160   1.385       .  A
C160        C161   1.367       .  A
C160        H163   1.082       .  S
C161        C162   1.380       .  A
C161        H164   1.082       .  S
C162        C268   1.481       .  S
N165        C169   1.359       .  A
N165        C166   1.360       .  A
N165        C255   1.443       .  S
C166        C831   1.477       .  S
C166        C167   1.383       .  A
C167        C168   1.368       .  A
C167        H170   1.082       .  S
C168        C169   1.379       .  A
C168        H171   1.082       .  S
C169        C220   1.471       .  S
C172        C173   1.403       .  A
C172        C177   1.404       .  A
C173        C174   1.396       .  A
C173        H186   1.083       .  S
C174        C175   1.403       .  A
C174        H187   1.083       .  S
C175        C176   1.409       .  A
C175        C178   1.486       .  S
C176        C177   1.403       .  A
C176        H188   1.082       .  S
C177        H189   1.082       .  S
C178        C179   1.346       .  D
C178        H190   1.087       .  S
C179        C180   1.484       .  S
C179        H191   1.085       .  S
C180        C181   1.403       .  A
C180        C185   1.406       .  A
C181        C182   1.401       .  A
C181        H192   1.083       .  S
C182        C183   1.406       .  A
C182        H193   1.083       .  S
C183        C184   1.405       .  A
C184        C185   1.397       .  A
C184        H194   1.083       .  S
C185        H195   1.083       .  S
C196        C197   1.407       .  A
C196        C201   1.405       .  A
C197        C198   1.399       .  A
C197        H210   1.083       .  S
C198        C199   1.403       .  A
C198        H211   1.083       .  S
C199        C200   1.410       .  A
C199        C202   1.492       .  S
C200        C201   1.404       .  A
C200        H212   1.082       .  S
C201        H213   1.083       .  S
C202        C203   1.350       .  D
C202        H214   1.084       .  S
C203        C204   1.493   1_554  S
C203        H215   1.086       .  S
C204        C209   1.412       .  A
C204       C1096   1.404       .  A
C205        C206   1.401       .  A
C205       C1095   1.407       .  A
C205        H216   1.083       .  S
C206        C207   1.402       .  A
C206        H217   1.083       .  S
C207       C1099   1.403       .  A
C208        C209   1.405       .  A
C208       C1098   1.403       .  A
C208        H218   1.083       .  S
C209        H219   1.081   1_556  S
C220        C221   1.400       .  A
C220        C225   1.401       .  A
C221        C222   1.399       .  A
C221        H234   1.083       .  S
C222        C223   1.407       .  A
C222        H235   1.083       .  S
C223        C224   1.408       .  A
C223        C226   1.488       .  S
C224        C225   1.397       .  A
C224        H236   1.080       .  S
C225        H237   1.084       .  S
C226        C227   1.349       .  D
C226        H238   1.087       .  S
C227        C228   1.480       .  S
C227        H239   1.083       .  S
C228        C229   1.402       .  A
C228        C233   1.405       .  A
C229        C230   1.400       .  A
C229        H240   1.083       .  S
C230        C231   1.408       .  A
C230        H241   1.083       .  S
C231        C232   1.405       .  A
C232        C233   1.396       .  A
C232        H242   1.083       .  S
C233        H243   1.083       .  S
C244        C245   1.405       .  A
C244        C249   1.407       .  A
C245        C246   1.400       .  A
C245        H258   1.083       .  S
C246        C247   1.406       .  A
C246        H259   1.083       .  S
C247        C248   1.411       .  A
C247        C250   1.500       .  S
C248        C249   1.404       .  A
C248        H260   1.080       .  S
C249        H261   1.083       .  S
C250        C251   1.353       .  D
C250        H262   1.083       .  S
C251        C252   1.501   1_554  S
C251        H263   1.083       .  S
C252        C253   1.408       .  A
C252       C1148   1.411       .  A
C253       C1145   1.403       .  A
C253        H264   1.083       .  S
C254        C255   1.402       .  A
C254       C1144   1.401       .  A
C254        H265   1.082       .  S
C255        C256   1.404       .  A
C256        C257   1.399       .  A
C256        H266   1.083       .  S
C257       C1143   1.410       .  A
C257        H267   1.080       .  S
C268        C269   1.403       .  A
C268        C273   1.404       .  A
C269        C270   1.402       .  A
C269        H282   1.083       .  S
C270        C271   1.407       .  A
C270        H283   1.083       .  S
C271        C272   1.406       .  A
C271        C274   1.488       .  S
C272        C273   1.395       .  A
C272        H284   1.081       .  S
C273        H285   1.083       .  S
C274        C275   1.353       .  D
C274        H286   1.083       .  S
C275        C276   1.491       .  S
C275        H287   1.085       .  S
C276        C277   1.408       .  A
C276        C281   1.406       .  A
C277        C278   1.402       .  A
C277        H288   1.083       .  S
C278        C279   1.403       .  A
C278        H289   1.083       .  S
C279        C280   1.407       .  A
C280        C281   1.395       .  A
C280        H290   1.083       .  S
C281        H291   1.080       .  S
C292        C293   1.406       .  A
C292        C297   1.407       .  A
C293        C294   1.401       .  A
C293        H306   1.083       .  S
C294        C295   1.406       .  A
C294        H307   1.083       .  S
C295        C296   1.411       .  A
C295        C298   1.500       .  S
C296        C297   1.405       .  A
C296        H308   1.081       .  S
C297        H309   1.083       .  S
C298        C299   1.353       .  D
C298        H310   1.083       .  S
C299        C300   1.501       .  S
C299        H311   1.084       .  S
C300        C301   1.407       .  A
C300       C1196   1.412       .  A
C301        C302   1.401   1_554  A
C301        H312   1.083       .  S
C302       C1194   1.402       .  A
C302        H313   1.083       .  S
C303        C304   1.404       .  A
C303       C1193   1.405       .  A
C304        C305   1.404       .  A
C304        H314   1.083       .  S
C305       C1191   1.410       .  A
C305        H315   1.082       .  S
C316        C317   1.406       .  A
C316        C321   1.407       .  A
C317        C318   1.401       .  A
C317        H330   1.083       .  S
C318        C319   1.406       .  A
C318        H331   1.083       .  S
C319        C320   1.408       .  A
C319        C322   1.493       .  S
C320        C321   1.402       .  A
C320        H332   1.082       .  S
C321        H333   1.083       .  S
C322        C323   1.352       .  D
C322        H334   1.085       .  S
C323        C324   1.493       .  S
C323        H335   1.085       .  S
C324        C325   1.407       .  A
C324        C329   1.407       .  A
C325        C326   1.403       .  A
C325        H336   1.083       .  S
C326        C327   1.403       .  A
C326        H337   1.079       .  S
C327        C328   1.404       .  A
C328        C329   1.399       .  A
C328        H338   1.083       .  S
C329        H339   1.082       .  S
C340        C345   1.404       .  A
C340       C1232   1.405       .  A
C341        C342   1.398   1_556  A
C341       C1231   1.407       .  A
C341       H1245   1.083       .  S
C342        C343   1.402       .  A
C342        H355   1.083       .  S
C343        C344   1.409   1_554  A
C343        C346   1.487       .  S
C344       C1236   1.399       .  A
C344        H356   1.082       .  S
C345       C1235   1.399       .  A
C345        H357   1.080       .  S
C346        C347   1.345       .  D
C346        H358   1.086       .  S
C347        C348   1.486       .  S
C347        H359   1.086       .  S
C348        C349   1.401       .  A
C348        C353   1.410       .  A
C349        C350   1.395       .  A
C349        H360   1.084       .  S
C350        C351   1.406       .  A
C350        H361   1.083       .  S
C351        C352   1.405       .  A
C352        C353   1.402       .  A
C352        H362   1.083       .  S
C353        H363   1.082       .  S
H354       C1232   1.083       .  S
C364        C365   1.402       .  A
C364        C369   1.406       .  A
C365        C366   1.407       .  A
C365        H378   1.083       .  S
C366       C1258   1.412       .  A
C366        H379   1.083       .  S
C367        C368   1.407       .  A
C367       C1257   1.410       .  A
C367        C370   1.498       .  S
C368       C1260   1.398       .  A
C368        H380   1.080       .  S
C369       C1259   1.397       .  A
C369        H381   1.084       .  S
C370        C371   1.356       .  D
C370        H382   1.086       .  S
C371        C372   1.492       .  S
C371        H383   1.083       .  S
C372        C373   1.408       .  A
C372        C377   1.405       .  A
C373        C374   1.405       .  A
C373        H384   1.083       .  S
C374        C375   1.404       .  A
C374        H385   1.083       .  S
C375        C376   1.407       .  A
C376        C377   1.397       .  A
C376        H386   1.083       .  S
C377        H387   1.082       .  S
C388        C389   1.403       .  A
C388        C393   1.409       .  A
C389       C1281   1.407       .  A
C389       H1293   1.082       .  S
C390       C1280   1.402   1_554  A
C390       C1282   1.407       .  A
C390        H403   1.083       .  S
C391        C392   1.406       .  A
C391       C1281   1.411       .  A
C391        C394   1.500       .  S
C392        C393   1.400       .  A
C392        H404   1.081       .  S
C393        H405   1.083       .  S
C394        C395   1.358       .  D
C394       H1297   1.084       .  S
C395        C396   1.500       .  S
C395        H407   1.084       .  S
C396        C397   1.411       .  A
C396       C1292   1.406       .  A
C397        C398   1.408       .  A
C397        H408   1.083       .  S
C398       C1290   1.403       .  A
C398        H409   1.081       .  S
C399        C400   1.403       .  A
C399       C1289   1.403       .  A
C400        C401   1.401       .  A
C400        H410   1.083       .  S
C401       C1287   1.408       .  A
C401        H411   1.082       .  S
H402       C1280   1.083       .  S
H406       C1285   1.086       .  S
C412        C413   1.403       .  A
C412        C417   1.401       .  A
C413        C414   1.399       .  A
C413        H426   1.083       .  S
C414        C415   1.405       .  A
C414        H427   1.083       .  S
C415        C416   1.409       .  A
C415        C418   1.489       .  S
C416        C417   1.396       .  A
C416        H428   1.081       .  S
C417        H429   1.083       .  S
C418        C419   1.349       .  D
C418        H430   1.083       .  S
C419        C420   1.488       .  S
C419        H431   1.084       .  S
C420        C421   1.410       .  A
C420        C425   1.404       .  A
C421        C422   1.401   1_655  A
C421        H432   1.080       .  S
C422        C423   1.405       .  A
C422        H433   1.083       .  S
C423        C424   1.403   1_455  A
C424        C425   1.394       .  A
C424        H434   1.083       .  S
C425        H435   1.084       .  S
C436        C437   1.407       .  A
C436        C441   1.407       .  A
C437        C438   1.397       .  A
C437        H450   1.083   1_655  S
C438        C439   1.401       .  A
C438        H451   1.083       .  S
C439        C440   1.409       .  A
C439        C442   1.490       .  S
C440        C441   1.408       .  A
C440        H452   1.083       .  S
C441        H453   1.083       .  S
C442        C443   1.350       .  D
C442        H454   1.084       .  S
C443        C444   1.498       .  S
C443        H455   1.087       .  S
C444        C445   1.409       .  A
C444        C449   1.408       .  A
C445       C1337   1.405       .  A
C445       H1347   1.083       .  S
C446       C1336   1.404       .  A
C446       C1338   1.401       .  A
C446        H457   1.083       .  S
C447        N992   1.444       .  S
C447        C448   1.405       .  A
C447       C1337   1.403       .  A
C448        C449   1.399       .  A
C448        H458   1.083       .  S
C449        H459   1.081       .  S
H456       C1336   1.083       .  S
C460        C461   1.406       .  A
C460        C465   1.408       .  A
C461        C462   1.404       .  A
C461        H474   1.083   1_655  S
C462        C463   1.407       .  A
C462        H475   1.083       .  S
C463        C464   1.409       .  A
C463        C466   1.499       .  S
C464        C465   1.403       .  A
C464        H476   1.081       .  S
C465        H477   1.083       .  S
C466        C467   1.353       .  D
C466        H478   1.085       .  S
C467        C468   1.498       .  S
C467        H479   1.085       .  S
C468        C469   1.406       .  A
C468        C473   1.412       .  A
C469        C470   1.400       .  A
C469        H480   1.083       .  S
C470        C471   1.402       .  A
C470        H481   1.083       .  S
C471        C472   1.403       .  A
C472        C473   1.407       .  A
C472        H482   1.083       .  S
C473        H483   1.081       .  S
C484        C485   1.406       .  A
C484        C489   1.407       .  A
C485        C486   1.399       .  A
C485        H498   1.083       .  S
C486        C487   1.404       .  A
C486        H499   1.083       .  S
C487        C488   1.409       .  A
C487        C490   1.493       .  S
C488        C489   1.403       .  A
C488        H500   1.081       .  S
C489        H501   1.083       .  S
C490        C491   1.350       .  D
C490        H502   1.085       .  S
C491        C492   1.493       .  S
C491        H503   1.085       .  S
C492        C493   1.405       .  A
C492        C497   1.410       .  A
C493        C494   1.400       .  A
C493        H504   1.083       .  S
C494       C1386   1.403       .  A
C494       H1396   1.082       .  S
C495        C496   1.403       .  A
C495       C1385   1.404       .  A
C496       C1388   1.400       .  A
C496        H506   1.083       .  S
C497       C1387   1.401       .  A
C497        H507   1.081       .  S
H505       C1385   1.082       .  S
C508        C509   1.405       .  A
C508        C513   1.407       .  A
C509        C510   1.401       .  A
C509        H522   1.083       .  S
C510        C511   1.405       .  A
C510        H523   1.083       .  S
C511        C512   1.407       .  A
C511        C514   1.489       .  S
C512        C513   1.399       .  A
C512        H524   1.082       .  S
C513        H525   1.083       .  S
C514        C515   1.350       .  D
C514        H526   1.086       .  S
C515        C516   1.488       .  S
C515        H527   1.085       .  S
C516        C517   1.406       .  A
C516        C521   1.406       .  A
C517        C518   1.401       .  A
C517        H528   1.083       .  S
C518        C519   1.404       .  A
C518        H529   1.083       .  S
C519        C520   1.405       .  A
C520        C521   1.397       .  A
C520        H530   1.083       .  S
C521        H531   1.082       .  S
C532        C533   1.406       .  A
C532        C537   1.409       .  A
C533        C534   1.402       .  A
C533        H546   1.083       .  S
C534        C535   1.407       .  A
C534        H547   1.083       .  S
C535        C536   1.411       .  A
C535        C538   1.503       .  S
C536        C537   1.407       .  A
C536        H548   1.080       .  S
C537        H549   1.083       .  S
C538        C539   1.354       .  D
C538        H550   1.084       .  S
C539        C540   1.502       .  S
C539        H551   1.084       .  S
C540        C541   1.408       .  A
C540        C545   1.412       .  A
C541        C542   1.403       .  A
C541        H552   1.083       .  S
C542       C1434   1.401       .  A
C542        H553   1.083       .  S
C543        C544   1.405       .  A
C543       C1433   1.402       .  A
C544       C1436   1.401       .  A
C544        H554   1.083       .  S
C545       C1435   1.404       .  A
C545        H555   1.081       .  S
C556        C557   1.403       .  A
C556        C561   1.406       .  A
C557        C558   1.399       .  A
C557        H570   1.083       .  S
C558        C559   1.406       .  A
C558        H571   1.083       .  S
C559        C560   1.408       .  A
C559        C562   1.489       .  S
C560        C561   1.398       .  A
C560        H572   1.080       .  S
C561        H573   1.083       .  S
C562        C563   1.350       .  D
C562        H574   1.085       .  S
C563        C564   1.486       .  S
C563        H575   1.083       .  S
C564        C565   1.406       .  A
C564        C569   1.407       .  A
C565        C566   1.401       .  A
C565        H576   1.083       .  S
C566        C567   1.400       .  A
C566        H577   1.083       .  S
C567        C568   1.401       .  A
C568        C569   1.395       .  A
C568        H578   1.084       .  S
C569        H579   1.082       .  S
C580        C581   1.405       .  A
C580        C585   1.406       .  A
C581        C582   1.396       .  A
C581        H594   1.083       .  S
C582        C583   1.403       .  A
C582        H595   1.084       .  S
C583        C584   1.411       .  A
C583        C586   1.493       .  S
C584        C585   1.404       .  A
C584        H596   1.080       .  S
C585        H597   1.083       .  S
C586        C587   1.349       .  D
C586        H598   1.086       .  S
C587        C588   1.491       .  S
C587        H599   1.084       .  S
C588        C589   1.403       .  A
C588        C593   1.408       .  A
C589        C590   1.400       .  A
C589        H600   1.083       .  S
C590        C591   1.406       .  A
C590        H601   1.083       .  S
C591        N999   1.448       .  S
C591        C592   1.406       .  A
C592        C593   1.401       .  A
C592       H1493   1.079       .  S
C593        H603   1.082       .  S
H602       C1483   1.079       .  S
C604        C605   1.404       .  A
C604       C1500   1.405       .  A
C605        C606   1.408       .  A
C605        H618   1.082       .  S
C606        C607   1.411       .  A
C606        H619   1.083       .  S
C607       C1499   1.409       .  A
C607       C1501   1.503       .  S
C608        C609   1.397       .  A
C608       C1498   1.407   1_556  A
C608        H620   1.081       .  S
C609       C1495   1.405       .  A
C609        H621   1.083       .  S
C610       C1498   1.500       .  S
C610        C611   1.356       .  D
C610       H1513   1.084       .  S
C611        C612   1.496       .  S
C611        H623   1.084       .  S
C612        C613   1.407       .  A
C612        C617   1.407       .  A
C613        C614   1.401       .  A
C613        H624   1.083       .  S
C614        C615   1.404       .  A
C614        H625   1.082       .  S
C615        C616   1.410       .  A
C616        C617   1.404       .  A
C616        H626   1.083       .  S
C617       H1518   1.081       .  S
H622       C1501   1.085       .  S
H627       C1508   1.081       .  S
C628        C629   1.401       .  A
C628        C633   1.404       .  A
C629        C630   1.400       .  A
C629        H642   1.083       .  S
C630        C631   1.408       .  A
C630        H643   1.083       .  S
C631        C632   1.409       .  A
C631        C634   1.493       .  S
C632        C633   1.397       .  A
C632        H644   1.079       .  S
C633        H645   1.083       .  S
C634        C635   1.350       .  D
C634        H646   1.087       .  S
C635        C636   1.484       .  S
C635        H647   1.082       .  S
C636        C637   1.402       .  A
C636        C641   1.406       .  A
C637        C638   1.400       .  A
C637        H648   1.083       .  S
C638        C639   1.404       .  A
C638        H649   1.080       .  S
C639        C640   1.405       .  A
C640        C641   1.398       .  A
C640        H650   1.083       .  S
C641        H651   1.083       .  S
C652        N942   1.445       .  S
C652        C657   1.403       .  A
C652       C1544   1.406       .  A
C653       C1543   1.403       .  A
C653       C1545   1.394       .  A
C653        H666   1.083       .  S
C654        C655   1.401       .  A
C654       C1544   1.397       .  A
C654        H667   1.083       .  S
C655        C656   1.409       .  A
C655        C658   1.486       .  S
C656        C657   1.402       .  A
C656        H668   1.082   1_556  S
C657        H669   1.082       .  S
C658        C659   1.345   1_556  D
C658        H670   1.086       .  S
C659        C660   1.488       .  S
C659        H671   1.087       .  S
C660        C661   1.403       .  A
C660        C665   1.408       .  A
C661        C662   1.398       .  A
C661        H672   1.083       .  S
C662        C663   1.405       .  A
C662        H673   1.083       .  S
C663        C664   1.407       .  A
C664        C665   1.402       .  A
C664        H674   1.083       .  S
C665        H675   1.082       .  S
C676        C677   1.405       .  A
C676        C681   1.405       .  A
C677        C678   1.401       .  A
C677        H690   1.083       .  S
C678        C679   1.405       .  A
C678        H691   1.083       .  S
C679        C680   1.407       .  A
C679        C682   1.490       .  S
C680        C681   1.401       .  A
C680        H692   1.082       .  S
C681        H693   1.083       .  S
C682        C683   1.349       .  D
C682        H694   1.086       .  S
C683        C684   1.490       .  S
C683        H695   1.086       .  S
C684        C685   1.406       .  A
C684        C689   1.405       .  A
C685        C686   1.404       .  A
C685        H696   1.083       .  S
C686        C687   1.405       .  A
C686        H697   1.083       .  S
C687        C688   1.408       .  A
C688        C689   1.399       .  A
C688        H698   1.083       .  S
C689        H699   1.083       .  S
C700        C705   1.403       .  A
C700       C1592   1.401       .  A
C701        C702   1.402       .  A
C701       C1591   1.404       .  A
C701        H714   1.082       .  S
C702        C703   1.407       .  A
C702        H715   1.083   1_556  S
C703        C704   1.411       .  A
C703        C706   1.500   1_556  S
C704       C1596   1.403       .  A
C704        H716   1.080       .  S
C705       C1595   1.401       .  A
C705        H717   1.083       .  S
C706        C707   1.353       .  D
C706        H718   1.082       .  S
C707        C708   1.501       .  S
C707        H719   1.083       .  S
C708        C709   1.406       .  A
C708        C713   1.412       .  A
C709        C710   1.400       .  A
C709        H720   1.083       .  S
C710        C711   1.406       .  A
C710        H721   1.083       .  S
C711        C712   1.406       .  A
C712        C713   1.404       .  A
C712        H722   1.083       .  S
C713        H723   1.079       .  S
C724        C725   1.403       .  A
C724        C729   1.408       .  A
C725        C726   1.395       .  A
C725        H738   1.083       .  S
C726        C727   1.403       .  A
C726        H739   1.084       .  S
C727        C728   1.405       .  A
C727        C730   1.480       .  S
C728        C729   1.398       .  A
C728        H740   1.082       .  S
C729        H741   1.083       .  S
C730        C731   1.347       .  D
C730        H742   1.086       .  S
C731        C732   1.483       .  S
C731        H743   1.086       .  S
C732        C733   1.405       .  A
C732        C737   1.406       .  A
C733        C734   1.400       .  A
C733        H744   1.083       .  S
C734        C735   1.402       .  A
C734        H745   1.083       .  S
C735        C736   1.401       .  A
C736        C737   1.394       .  A
C736        H746   1.083       .  S
C737        H747   1.082       .  S
C748        C749   1.402       .  A
C748       C1644   1.405       .  A
C749        C750   1.403       .  A
C749        H762   1.083       .  S
C750        C751   1.408       .  A
C750        H763   1.083       .  S
C751       C1643   1.408       .  A
C751        C754   1.495       .  S
C752        C753   1.396       .  A
C752       C1642   1.406   1_556  A
C752        H764   1.082   1_556  S
C753       C1639   1.403       .  A
C753        H765   1.083       .  S
C754       C1646   1.353       .  D
C754        H766   1.086       .  S
C755        C756   1.482       .  S
C755       C1645   1.350       .  D
C755        H767   1.085   1_554  S
C756        C757   1.402       .  A
C756       C1652   1.404       .  A
C757        C758   1.399       .  A
C757        H768   1.083       .  S
C758        C759   1.407       .  A
C758        H769   1.081       .  S
C759       C1651   1.407       .  A
C760        C761   1.398       .  A
C760       C1650   1.406       .  A
C760        H770   1.083       .  S
C761       C1647   1.406       .  A
C761        H771   1.082       .  S
C772        C773   1.407       .  A
C772        C777   1.409       .  A
C773        C774   1.400       .  A
C773        H786   1.083       .  S
C774        C775   1.405       .  A
C774        H787   1.083       .  S
C775        C776   1.411       .  A
C775        C778   1.500       .  S
C776        C777   1.409       .  A
C776        H788   1.081       .  S
C777        H789   1.083       .  S
C778        C779   1.353       .  D
C778        H790   1.084       .  S
C779        C780   1.504       .  S
C779        H791   1.085       .  S
C780        C781   1.408       .  A
C780        C785   1.412   1_554  A
C781        C782   1.404   1_554  A
C781        H792   1.083       .  S
C782        C783   1.403       .  A
C782        H793   1.083       .  S
C783        N899   1.448       .  S
C783        C784   1.405       .  A
C784        C785   1.403       .  A
C784        H794   1.083       .  S
C785        H795   1.080       .  S
C796        C797   1.404       .  A
C796        C801   1.405       .  A
C797        C798   1.399       .  A
C797        H810   1.083       .  S
C798        C799   1.404       .  A
C798        H811   1.083       .  S
C799        C800   1.407       .  A
C799        C802   1.487       .  S
C800        C801   1.401       .  A
C800        H812   1.082       .  S
C801        H813   1.083       .  S
C802        C803   1.351       .  D
C802        H814   1.083       .  S
C803        C804   1.493       .  S
C803        H815   1.086       .  S
C804        C805   1.408       .  A
C804        C809   1.409       .  A
C805        C806   1.402       .  A
C805        H816   1.083       .  S
C806        C807   1.401       .  A
C806        H817   1.083       .  S
C807        C808   1.402       .  A
C808        C809   1.397       .  A
C808        H818   1.083       .  S
C809        H819   1.080       .  S
C820        C821   1.405       .  A
C820        C825   1.409       .  A
C821        C822   1.402       .  A
C821        H834   1.080       .  S
C822        C823   1.405       .  A
C822        H835   1.083       .  S
C823        C824   1.403       .  A
C823        C826   1.486       .  S
C824        C825   1.396       .  A
C824        H836   1.082       .  S
C825        H837   1.082       .  S
C826        C827   1.353       .  D
C826        H838   1.084       .  S
C827        C828   1.490       .  S
C827        H839   1.086       .  S
C828        C829   1.408       .  A
C828        C833   1.406       .  A
C829        C830   1.403       .  A
C829        H840   1.083       .  S
C830        C831   1.402       .  A
C830        H841   1.083       .  S
C831        C832   1.403       .  A
C832        C833   1.395       .  A
C832        H842   1.083       .  S
C833        H843   1.081       .  S
C844        C845   1.400       .  A
C844        C849   1.402       .  A
C845        C846   1.395       .  A
C845        H858   1.082       .  S
C846        C847   1.403       .  A
C846        H859   1.084       .  S
C847        C848   1.407       .  A
C847        C850   1.480       .  S
C848        C849   1.399       .  A
C848        H860   1.082       .  S
C849        H861   1.083       .  S
C850        C851   1.346   1_565  D
C850        H862   1.086       .  S
C851        C852   1.480   1_556  S
C851        H863   1.086   1_556  S
C852        C853   1.402       .  A
C852        C857   1.406       .  A
C853        C854   1.395       .  A
C853        H864   1.083       .  S
C854        C855   1.405       .  A
C854        H865   1.083       .  S
C855        C856   1.405       .  A
C856        C857   1.397       .  A
C856        H866   1.083       .  S
C857        H867   1.083   1_554  S
C868        C869   1.402       .  A
C868        C873   1.403       .  A
C869        C870   1.401       .  A
C869       H1773   1.083       .  S
C870        C871   1.404       .  A
C870        H883   1.083       .  S
C871        C872   1.408       .  A
C871        C874   1.491       .  S
C872        C873   1.401       .  A
C872        H884   1.082       .  S
C873        H885   1.082       .  S
C874        C875   1.351       .  D
C874        H886   1.083       .  S
C875        C876   1.497       .  S
C875        H887   1.086       .  S
C876        C877   1.410       .  A
C876        C881   1.406       .  A
C877        C878   1.404       .  A
C877        H888   1.080       .  S
C878        C879   1.407       .  A
C878        H889   1.083       .  S
C879        C880   1.405       .  A
C880        C881   1.400       .  A
C880        H890   1.083       .  S
C881        H891   1.083       .  S
H882       C1760   1.083       .  S
N892        C893   1.358       .  A
N892       C1759   1.439       .  S
C893       C1711   1.484       .  S
C894        C895   1.371       .  A
C894        H897   1.082       .  S
C895        C896   1.377       .  A
C895        H898   1.082       .  S
C896       C1735   1.476       .  S
N899        C903   1.360       .  A
N899        C900   1.360       .  A
C900       C1639   1.469       .  S
C900        C901   1.382       .  A
C901        C902   1.365       .  A
C901        H904   1.083       .  S
C902        C903   1.381       .  A
C902        H905   1.083       .  S
C903       C1698   1.470       .  S
O906        C914   1.261       .  A
O906       Co926   2.002       .  S
O907        C915   1.281       .  A
O907       Co927   2.036       .  S
O908        C916   1.262       .  A
O908       Co928   1.959       .  S
O909        C917   1.262       .  A
O909       Co929   1.889       .  S
O910        C916   1.272       .  A
O910       Co927   2.019       .  S
O911        C917   1.298       .  A
O911       Co926   2.116       .  S
O912        C915   1.267       .  A
O912       Co929   1.959       .  S
O913        C914   1.259       .  A
O913       Co928   1.986       .  S
C914       C1770   1.486   1_545  S
C915       C1554   1.478       .  S
C916       C1746   1.479       .  S
C917       C1578   1.483       .  S
O918        C931   1.263       .  A
O918       Co926   1.895       .  S
O919        C932   1.263   1_545  A
O919       Co927   1.970       .  S
O920        C933   1.279       .  A
O920       Co928   2.024   1_565  S
O921        C934   1.261       .  A
O921       Co929   2.007       .  S
O922        C934   1.257       .  A
O922       Co927   1.979       .  S
O923        C933   1.266   1_545  A
O923       Co926   1.959       .  S
O924        C931   1.296       .  A
O924       Co929   2.103       .  S
O925        C932   1.276       .  A
O925       Co928   2.042   1_565  S
Co926       O930   2.008       .  S
Co927       O930   2.031       .  S
Co928       O930   2.039       .  S
Co929       O930   2.011       .  S
C931       C1615   1.479       .  S
C932       C1663   1.498       .  S
C933       C1687   1.473       .  S
C934       C1602   1.484       .  S
N935        C939   1.362       .  A
N935        C936   1.365       .  A
N935       C1591   1.449       .  S
C936       C1519   1.485       .  S
C936        C937   1.385       .  A
C937        C938   1.367       .  A
C937        H940   1.082       .  S
C938        C939   1.378       .  A
C938        H941   1.082       .  S
C939       C1626   1.476       .  S
N942        C946   1.362       .  A
N942        C943   1.364       .  A
C943       C1495   1.489       .  S
C943        C944   1.386       .  A
C944        C945   1.373       .  A
C944        H947   1.082       .  S
C945        C946   1.379       .  A
C945        H948   1.082       .  S
C946       C1567   1.481       .  S
O949        C957   1.277       .  A
O949       Co969   2.018       .  S
O950        C958   1.264       .  A
O950       Co970   2.012       .  S
O951        C959   1.269       .  A
O951       Co971   1.905       .  S
O952        C960   1.257       .  A
O952       Co972   1.964       .  S
O953        C959   1.292       .  A
O953       Co970   2.095       .  S
O954        C960   1.274       .  A
O954       Co969   2.044       .  S
O955        C958   1.257       .  A
O955       Co972   1.974       .  S
O956        C957   1.270       .  A
O956       Co971   1.978       .  S
C957       C1471   1.484       .  S
C958       C1314   1.480       .  S
C959       C1447   1.478       .  S
C960       C1327   1.479   1_455  S
O961        C974   1.265   1_455  A
O961       Co969   1.964       .  S
O962        C975   1.265       .  A
O962       Co970   1.887       .  S
O963        C976   1.267       .  A
O963       Co971   2.012       .  S
O964        C977   1.281       .  A
O964       Co972   2.034   1_655  S
O965        C977   1.271   1_455  A
O965       Co970   1.972       .  S
O966        C976   1.265       .  A
O966       Co969   1.990       .  S
O967        C974   1.277       .  A
O967       Co972   2.031   1_655  S
O968        C975   1.301       .  A
O968       Co971   2.120       .  S
Co969       O973   2.042       .  S
Co970       O973   2.000       .  S
Co971       O973   2.016       .  S
Co972       O973   2.025       .  S
C974       C1375   1.487       .  S
C975       C1399   1.487       .  S
C976       C1423   1.493       .  S
C977       C1351   1.491       .  S
N978        C982   1.364       .  A
N978        C979   1.366       .  A
N978       C1434   1.442       .  S
C979       C1290   1.492       .  S
C979        C980   1.384       .  A
C980        C981   1.369       .  A
C980        H983   1.082       .  S
C981        C982   1.381       .  A
C981        H984   1.082       .  S
C982       C1410   1.489       .  S
N985        C989   1.360       .  A
N985        C986   1.364       .  A
N985       C1386   1.442       .  S
C986       C1506   1.491       .  S
C986        C987   1.385       .  A
C987        C988   1.375       .  A
C987        H990   1.082       .  S
C988        C989   1.380       .  A
C988        H991   1.082       .  S
C989       C1362   1.481       .  S
N992        C996   1.362       .  A
N992        C993   1.362       .  A
C993       C1255   1.480       .  S
C993        C994   1.384       .  A
C994        C995   1.371       .  A
C994        H997   1.082       .  S
C995        C996   1.380       .  A
C995        H998   1.082       .  S
C996       C1303   1.481       .  S
N999       C1003   1.359       .  A
N999       C1000   1.360       .  A
C1000      C1650   1.487       .  S
C1000      C1001   1.386       .  A
C1001      C1002   1.372       .  A
C1001      H1004   1.082       .  S
C1002      C1003   1.379       .  A
C1002      H1005   1.082       .  S
C1003      C1458   1.470       .  S
O1006      C1014   1.275       .  A
O1006     Co1026   2.003       .  S
O1007      C1015   1.262       .  A
O1007     Co1027   2.000       .  S
O1008      C1016   1.269       .  A
O1008     Co1028   1.903       .  S
O1009      C1017   1.263       .  A
O1009     Co1029   1.965       .  S
O1010      C1016   1.299       .  A
O1010     Co1027   2.109       .  S
O1011      C1017   1.281       .  A
O1011     Co1026   2.054       .  S
O1012      C1015   1.262       .  A
O1012     Co1029   1.986       .  S
O1013      C1014   1.275       .  A
O1013     Co1028   1.986       .  S
C1014      C1242   1.484       .  S
C1015      C1074   1.485       .  S
C1016      C1207   1.491       .  S
C1017      C1087   1.492       .  S
O1018      C1031   1.260       .  A
O1018     Co1026   1.963       .  S
O1019      C1032   1.261       .  A
O1019     Co1027   1.875       .  S
O1020      C1033   1.266       .  A
O1020     Co1028   2.013       .  S
O1021      C1034   1.277       .  A
O1021     Co1029   2.020       .  S
O1022      C1034   1.269       .  A
O1022     Co1027   1.972       .  S
O1023      C1033   1.264       .  A
O1023     Co1026   1.990       .  S
O1024      C1031   1.274       .  A
O1024     Co1029   2.033       .  S
O1025      C1032   1.301       .  A
O1025     Co1028   2.133       .  S
Co1026     O1030   2.027       .  S
Co1027     O1030   1.991       .  S
Co1028     O1030   2.021       .  S
Co1029     O1030   2.048       .  S
C1031      C1135   1.485       .  S
C1032      C1170   1.485       .  S
C1033      C1183   1.493       .  S
C1034      C1122   1.478       .  S
N1035      C1039   1.361       .  A
N1035      C1036   1.361       .  A
N1035      C1218   1.445       .  S
C1036      C1530   1.480       .  S
C1036      C1037   1.382       .  A
C1037      C1038   1.370       .  A
C1037      H1040   1.082       .  S
C1038      C1039   1.383       .  A
C1039      C1231   1.485       .  S
N1042      C1046   1.360       .  A
N1042      C1043   1.359       .  A
N1042      C1098   1.439       .  S
C1043      C1279   1.476       .  S
C1043      C1044   1.381       .  A
C1044      C1045   1.373       .  A
C1044      H1047   1.082       .  S
C1045      C1046   1.383       .  A
C1045      H1048   1.082       .  S
C1046      C1063   1.486       .  S
N1049      C1053   1.362       .  A
N1049      C1050   1.363       .  A
N1049      C1194   1.445       .  S
C1050      C1266   1.483       .  S
C1050      C1051   1.384       .  A
C1051      C1052   1.369       .  A
C1051      H1054   1.082       .  S
C1052      C1053   1.379       .  A
C1052      H1055   1.082       .  S
C1053      C1159   1.479       .  S
N1056      C1060   1.362       .  A
N1056      C1057   1.361       .  A
N1056      C1146   1.446       .  S
C1057      C1722   1.473       .  S
C1057      C1058   1.381       .  A
C1058      C1059   1.366       .  A
C1058      H1061   1.083       .  S
C1059      C1060   1.381       .  A
C1059      H1062   1.082       .  S
C1060      C1111   1.476       .  S
C1063      C1064   1.403       .  A
C1063      C1068   1.405       .  A
C1064      C1065   1.395       .  A
C1064      H1077   1.083       .  S
C1065      C1066   1.404       .  A
C1065      H1078   1.084       .  S
C1066      C1067   1.411       .  A
C1066      C1069   1.493       .  S
C1067      C1068   1.405       .  A
C1067      H1079   1.081       .  S
C1068      H1080   1.082       .  S
C1069      C1070   1.349       .  D
C1069      H1081   1.086       .  S
C1070      C1071   1.492       .  S
C1070      H1082   1.084       .  S
C1071      C1072   1.403       .  A
C1071      C1076   1.409       .  A
C1072      C1073   1.401       .  A
C1072      H1083   1.083       .  S
C1073      C1074   1.407       .  A
C1073      H1084   1.083       .  S
C1074      C1075   1.405       .  A
C1075      C1076   1.401       .  A
C1075      H1085   1.083       .  S
C1076      H1086   1.082       .  S
C1087      C1088   1.407       .  A
C1087      C1092   1.407       .  A
C1088      C1089   1.402       .  A
C1088      H1101   1.083       .  S
C1089      C1090   1.405       .  A
C1089      H1102   1.083       .  S
C1090      C1091   1.411       .  A
C1090      C1093   1.501       .  S
C1091      C1092   1.408       .  A
C1091      H1103   1.081       .  S
C1092      H1104   1.083       .  S
C1093      C1094   1.354       .  D
C1093      H1105   1.083       .  S
C1094      C1095   1.505       .  S
C1094      H1106   1.085       .  S
C1095      C1100   1.414       .  A
C1096      C1097   1.397       .  A
C1096      H1107   1.083       .  S
C1097      C1098   1.401       .  A
C1097      H1108   1.083       .  S
C1099      C1100   1.408       .  A
C1099      H1109   1.082       .  S
C1100      H1110   1.080       .  S
C1111      C1112   1.401       .  A
C1111      C1116   1.402       .  A
C1112      C1113   1.401       .  A
C1112      H1125   1.083       .  S
C1113      C1114   1.408       .  A
C1113      H1126   1.083       .  S
C1114      C1115   1.408       .  A
C1114      C1117   1.492       .  S
C1115      C1116   1.394       .  A
C1115      H1127   1.079       .  S
C1116      H1128   1.084       .  S
C1117      C1118   1.350       .  D
C1117      H1129   1.086       .  S
C1118      C1119   1.483       .  S
C1118      H1130   1.082       .  S
C1119      C1120   1.404       .  A
C1119      C1124   1.406       .  A
C1120      C1121   1.400       .  A
C1120      H1131   1.083       .  S
C1121      C1122   1.404       .  A
C1121      H1132   1.083       .  S
C1122      C1123   1.406       .  A
C1123      C1124   1.396       .  A
C1123      H1133   1.083       .  S
C1124      H1134   1.082       .  S
C1135      C1136   1.405       .  A
C1135      C1140   1.405       .  A
C1136      C1137   1.398       .  A
C1136      H1149   1.083       .  S
C1137      C1138   1.405       .  A
C1137      H1150   1.083       .  S
C1138      C1139   1.412       .  A
C1138      C1141   1.496       .  S
C1139      C1140   1.402       .  A
C1139      H1151   1.079       .  S
C1140      H1152   1.083       .  S
C1141      C1142   1.351       .  D
C1141      H1153   1.084       .  S
C1142      C1143   1.496       .  S
C1142      H1154   1.083       .  S
C1143      C1144   1.407       .  A
C1144      H1155   1.083       .  S
C1145      C1146   1.403       .  A
C1145      H1156   1.082       .  S
C1146      C1147   1.404       .  A
C1147      C1148   1.401       .  A
C1147      H1157   1.083       .  S
C1148      H1158   1.080       .  S
C1159      C1160   1.401       .  A
C1159      C1164   1.404       .  A
C1160      C1161   1.402       .  A
C1160      H1173   1.083       .  S
C1161      C1162   1.409       .  A
C1161      H1174   1.083       .  S
C1162      C1163   1.407       .  A
C1162      C1165   1.492       .  S
C1163      C1164   1.397       .  A
C1163      H1175   1.081       .  S
C1164      H1176   1.083       .  S
C1165      C1166   1.355       .  D
C1165      H1177   1.082       .  S
C1166      C1167   1.497       .  S
C1166      H1178   1.084       .  S
C1167      C1168   1.410       .  A
C1167      C1172   1.407       .  A
C1168      C1169   1.405       .  A
C1168      H1179   1.083       .  S
C1169      C1170   1.404       .  A
C1169      H1180   1.083       .  S
C1170      C1171   1.407       .  A
C1171      C1172   1.395       .  A
C1171      H1181   1.083       .  S
C1172      H1182   1.078       .  S
C1183      C1184   1.406       .  A
C1183      C1188   1.409       .  A
C1184      C1185   1.401       .  A
C1184      H1197   1.083       .  S
C1185      C1186   1.406       .  A
C1185      H1198   1.083       .  S
C1186      C1187   1.410       .  A
C1186      C1189   1.499       .  S
C1187      C1188   1.406       .  A
C1187      H1199   1.081       .  S
C1188      H1200   1.083       .  S
C1189      C1190   1.353       .  D
C1189      H1201   1.085       .  S
C1190      C1191   1.499       .  S
C1190      H1202   1.084       .  S
C1191      C1192   1.406       .  A
C1192      C1193   1.402       .  A
C1192      H1203   1.083       .  S
C1193      H1204   1.083       .  S
C1194      C1195   1.404       .  A
C1195      C1196   1.405   1_556  A
C1195      H1205   1.083       .  S
C1196      H1206   1.080       .  S
C1207      C1208   1.407       .  A
C1207      C1212   1.408       .  A
C1208      C1209   1.401       .  A
C1208      H1221   1.083       .  S
C1209      C1210   1.405       .  A
C1209      H1222   1.083       .  S
C1210      C1211   1.408       .  A
C1210      C1213   1.494       .  S
C1211      C1212   1.405       .  A
C1211      H1223   1.082       .  S
C1212      H1224   1.083       .  S
C1213      C1214   1.352       .  D
C1213      H1225   1.086       .  S
C1214      C1215   1.495       .  S
C1214      H1226   1.086       .  S
C1215      C1216   1.407       .  A
C1215      C1220   1.407       .  A
C1216      C1217   1.405       .  A
C1216      H1227   1.083       .  S
C1217      C1218   1.403       .  A
C1217      H1228   1.080       .  S
C1218      C1219   1.405       .  A
C1219      C1220   1.400       .  A
C1219      H1229   1.083       .  S
C1220      H1230   1.082       .  S
C1231      C1236   1.404       .  A
C1232      C1233   1.397       .  A
C1233      C1234   1.403       .  A
C1233      H1246   1.083       .  S
C1234      C1235   1.409       .  A
C1234      C1237   1.489       .  S
C1235      H1247   1.080       .  S
C1236      H1248   1.081       .  S
C1237      C1238   1.345       .  D
C1237      H1249   1.086       .  S
C1238      C1239   1.486       .  S
C1238      H1250   1.085       .  S
C1239      C1240   1.399       .  A
C1239      C1244   1.410       .  A
C1240      C1241   1.394       .  A
C1240      H1251   1.084       .  S
C1241      C1242   1.409       .  A
C1241      H1252   1.083       .  S
C1242      C1243   1.404       .  A
C1243      C1244   1.403       .  A
C1243      H1253   1.083       .  S
C1244      H1254   1.082       .  S
C1255      C1256   1.401       .  A
C1255      C1260   1.405       .  A
C1256      C1257   1.405       .  A
C1256      H1269   1.083       .  S
C1257      H1270   1.083       .  S
C1258      C1259   1.407       .  A
C1258      C1261   1.500       .  S
C1259      H1271   1.079       .  S
C1260      H1272   1.084       .  S
C1261      C1262   1.356       .  D
C1261      H1273   1.086   1_554  S
C1262      C1263   1.492       .  S
C1262      H1274   1.082       .  S
C1263      C1264   1.408       .  A
C1263      C1268   1.405   1_554  A
C1264      C1265   1.405   1_554  A
C1264      H1275   1.083       .  S
C1265      C1266   1.403       .  A
C1265      H1276   1.083       .  S
C1266      C1267   1.406       .  A
C1267      C1268   1.398       .  A
C1267      H1277   1.083       .  S
C1268      H1278   1.082       .  S
C1279      C1280   1.401       .  A
C1279      C1284   1.403       .  A
C1281      H1294   1.083       .  S
C1282      C1283   1.409   1_554  A
C1282      C1285   1.494       .  S
C1283      C1284   1.401       .  A
C1283      H1295   1.081       .  S
C1284      H1296   1.084       .  S
C1285      C1286   1.352       .  D
C1286      C1287   1.490       .  S
C1286      H1298   1.084       .  S
C1287      C1288   1.405       .  A
C1288      C1289   1.401       .  A
C1288      H1299   1.083       .  S
C1289      H1300   1.083       .  S
C1290      C1291   1.409       .  A
C1291      C1292   1.400       .  A
C1291      H1301   1.083       .  S
C1292      H1302   1.081       .  S
C1303      C1304   1.402       .  A
C1303      C1308   1.402       .  A
C1304      C1305   1.396       .  A
C1304      H1317   1.082       .  S
C1305      C1306   1.405       .  A
C1305      H1318   1.083       .  S
C1306      C1307   1.411       .  A
C1306      C1309   1.492       .  S
C1307      C1308   1.398       .  A
C1307      H1319   1.079       .  S
C1308      H1320   1.083       .  S
C1309      C1310   1.348       .  D
C1309      H1321   1.085       .  S
C1310      C1311   1.487       .  S
C1310      H1322   1.082       .  S
C1311      C1312   1.409       .  A
C1311      C1316   1.402       .  A
C1312      C1313   1.401   1_655  A
C1312      H1323   1.081       .  S
C1313      C1314   1.404       .  A
C1313      H1324   1.083       .  S
C1314      C1315   1.405       .  A
C1315      C1316   1.395   1_455  A
C1315      H1325   1.083       .  S
C1316      H1326   1.083       .  S
C1327      C1328   1.405   1_655  A
C1327      C1332   1.404       .  A
C1328      C1329   1.402   1_455  A
C1328      H1341   1.084       .  S
C1329      C1330   1.406       .  A
C1329      H1342   1.083       .  S
C1330      C1331   1.409       .  A
C1330      C1333   1.495       .  S
C1331      C1332   1.403       .  A
C1331      H1343   1.082   1_556  S
C1332      H1344   1.083       .  S
C1333      C1334   1.354   1_556  D
C1333      H1345   1.083   1_556  S
C1334      C1335   1.501       .  S
C1334      H1346   1.086   1_554  S
C1335      C1336   1.410       .  A
C1335      C1340   1.410       .  A
C1337      H1348   1.083       .  S
C1338      C1339   1.405       .  A
C1339      C1340   1.400       .  A
C1339      H1349   1.083       .  S
C1340      H1350   1.079       .  S
C1351      C1352   1.407       .  A
C1351      C1356   1.408       .  A
C1352      C1353   1.404       .  A
C1352      H1365   1.083   1_655  S
C1353      C1354   1.407       .  A
C1353      H1366   1.083       .  S
C1354      C1355   1.409       .  A
C1354      C1357   1.499       .  S
C1355      C1356   1.402       .  A
C1355      H1367   1.081       .  S
C1356      H1368   1.083       .  S
C1357      C1358   1.353       .  D
C1357      H1369   1.085       .  S
C1358      C1359   1.495       .  S
C1358      H1370   1.084       .  S
C1359      C1360   1.406       .  A
C1359      C1364   1.411       .  A
C1360      C1361   1.399       .  A
C1360      H1371   1.083       .  S
C1361      C1362   1.401       .  A
C1361      H1372   1.083       .  S
C1362      C1363   1.403       .  A
C1363      C1364   1.406       .  A
C1363      H1373   1.083       .  S
C1364      H1374   1.081       .  S
C1375      C1376   1.406       .  A
C1375      C1380   1.408       .  A
C1376      C1377   1.397       .  A
C1376      H1389   1.083       .  S
C1377      C1378   1.403       .  A
C1377      H1390   1.084       .  S
C1378      C1379   1.408       .  A
C1378      C1381   1.490   1_556  S
C1379      C1380   1.403       .  A
C1379      H1391   1.082       .  S
C1380      H1392   1.083       .  S
C1381      C1382   1.349       .  D
C1381      H1393   1.085       .  S
C1382      C1383   1.491       .  S
C1382      H1394   1.085       .  S
C1383      C1384   1.405       .  A
C1383      C1388   1.409       .  A
C1384      C1385   1.400       .  A
C1384      H1395   1.083       .  S
C1386      C1387   1.403       .  A
C1387      H1397   1.083       .  S
C1388      H1398   1.082       .  S
C1399      C1400   1.406       .  A
C1399      C1404   1.408       .  A
C1400      C1401   1.404       .  A
C1400      H1413   1.083       .  S
C1401      C1402   1.406       .  A
C1401      H1414   1.083       .  S
C1402      C1403   1.405       .  A
C1402      C1405   1.491       .  S
C1403      C1404   1.400       .  A
C1403      H1415   1.082       .  S
C1404      H1416   1.083       .  S
C1405      C1406   1.352       .  D
C1405      H1417   1.086       .  S
C1406      C1407   1.491       .  S
C1406      H1418   1.086       .  S
C1407      C1408   1.407       .  A
C1407      C1412   1.405       .  A
C1408      C1409   1.405       .  A
C1408      H1419   1.083       .  S
C1409      C1410   1.404       .  A
C1409      H1420   1.081       .  S
C1410      C1411   1.407       .  A
C1411      C1412   1.398       .  A
C1411      H1421   1.083       .  S
C1412      H1422   1.082       .  S
C1423      C1424   1.406       .  A
C1423      C1428   1.408       .  A
C1424      C1425   1.402       .  A
C1424      H1437   1.083       .  S
C1425      C1426   1.407       .  A
C1425      H1438   1.083       .  S
C1426      C1427   1.410       .  A
C1426      C1429   1.500   1_556  S
C1427      C1428   1.405       .  A
C1427      H1439   1.081       .  S
C1428      H1440   1.083       .  S
C1429      C1430   1.354       .  D
C1429      H1441   1.083       .  S
C1430      C1431   1.503       .  S
C1430      H1442   1.084   1_554  S
C1431      C1432   1.409       .  A
C1431      C1436   1.411       .  A
C1432      C1433   1.403       .  A
C1432      H1443   1.083       .  S
C1433      H1444   1.081       .  S
C1434      C1435   1.402       .  A
C1435      H1445   1.083       .  S
C1436      H1446   1.079       .  S
C1447      C1448   1.403       .  A
C1447      C1452   1.406       .  A
C1448      C1449   1.400       .  A
C1448      H1461   1.083       .  S
C1449      C1450   1.407       .  A
C1449      H1462   1.083       .  S
C1450      C1451   1.407       .  A
C1450      C1453   1.488       .  S
C1451      C1452   1.394       .  A
C1451      H1463   1.080       .  S
C1452      H1464   1.083       .  S
C1453      C1454   1.351       .  D
C1453      H1465   1.084       .  S
C1454      C1455   1.487       .  S
C1454      H1466   1.083       .  S
C1455      C1456   1.408       .  A
C1455      C1460   1.407       .  A
C1456      C1457   1.401       .  A
C1456      H1467   1.083       .  S
C1457      C1458   1.400       .  A
C1457      H1468   1.083       .  S
C1458      C1459   1.400       .  A
C1459      C1460   1.393       .  A
C1459      H1469   1.084       .  S
C1460      H1470   1.081       .  S
C1471      C1472   1.404       .  A
C1471      C1476   1.407       .  A
C1472      C1473   1.396       .  A
C1472      H1485   1.083       .  S
C1473      C1474   1.404       .  A
C1473      H1486   1.084   1_556  S
C1474      C1475   1.411       .  A
C1474      C1477   1.494       .  S
C1475      C1476   1.404       .  A
C1475      H1487   1.080       .  S
C1476      H1488   1.083       .  S
C1477      C1478   1.350       .  D
C1477      H1489   1.086   1_556  S
C1478      C1479   1.490   1_556  S
C1478      H1490   1.083       .  S
C1479      C1480   1.404   1_554  A
C1479      C1484   1.408       .  A
C1480      C1481   1.400   1_556  A
C1480      H1491   1.083       .  S
C1481      C1482   1.405       .  A
C1481      H1492   1.083       .  S
C1482      C1483   1.403       .  A
C1483      C1484   1.400       .  A
C1484      H1494   1.082       .  S
C1495      C1496   1.405       .  A
C1496      C1497   1.409       .  A
C1496      H1509   1.083       .  S
C1497      C1498   1.410   1_556  A
C1497      H1510   1.083   1_556  S
C1499      C1500   1.396       .  A
C1499      H1511   1.078       .  S
C1500      H1512   1.083       .  S
C1501      C1502   1.356       .  D
C1502      C1503   1.495       .  S
C1502      H1514   1.081       .  S
C1503      C1504   1.407       .  A
C1503      C1508   1.407       .  A
C1504      C1505   1.401       .  A
C1504      H1515   1.083       .  S
C1505      C1506   1.403       .  A
C1505      H1516   1.082       .  S
C1506      C1507   1.408       .  A
C1507      C1508   1.402       .  A
C1507      H1517   1.083       .  S
C1519      C1520   1.402       .  A
C1519      C1524   1.406       .  A
C1520      C1521   1.403       .  A
C1520      H1533   1.083       .  S
C1521      C1522   1.409       .  A
C1521      H1534   1.083       .  S
C1522      C1523   1.408       .  A
C1522      C1525   1.498       .  S
C1523      C1524   1.399       .  A
C1523      H1535   1.079       .  S
C1524      H1536   1.084       .  S
C1525      C1526   1.354       .  D
C1525      H1537   1.086       .  S
C1526      C1527   1.491       .  S
C1526      H1538   1.082       .  S
C1527      C1528   1.405       .  A
C1527      C1532   1.407       .  A
C1528      C1529   1.403       .  A
C1528      H1539   1.083       .  S
C1529      C1530   1.404       .  A
C1529      H1540   1.082       .  S
C1530      C1531   1.405       .  A
C1531      C1532   1.400       .  A
C1531      H1541   1.083       .  S
C1532      H1542   1.082       .  S
C1543      C1548   1.402       .  A
C1544      H1557   1.082       .  S
C1545      C1546   1.402       .  A
C1545      H1558   1.083       .  S
C1546      C1547   1.411       .  A
C1546      C1549   1.487       .  S
C1547      C1548   1.403       .  A
C1547      H1559   1.081       .  S
C1548      H1560   1.083       .  S
C1549      C1550   1.344       .  D
C1549      H1561   1.086       .  S
C1550      C1551   1.487       .  S
C1550      H1562   1.086       .  S
C1551      C1552   1.401       .  A
C1551      C1556   1.410       .  A
C1552      C1553   1.396       .  A
C1552      H1563   1.083       .  S
C1553      C1554   1.406       .  A
C1553      H1564   1.084       .  S
C1554      C1555   1.404       .  A
C1555      C1556   1.402       .  A
C1555      H1565   1.083       .  S
C1556      H1566   1.082       .  S
C1567      C1568   1.403       .  A
C1567      C1572   1.403       .  A
C1568      C1569   1.401       .  A
C1568      H1581   1.083       .  S
C1569      C1570   1.406       .  A
C1569      H1582   1.083       .  S
C1570      C1571   1.406       .  A
C1570      C1573   1.486       .  S
C1571      C1572   1.400       .  A
C1571      H1583   1.082       .  S
C1572      H1584   1.083       .  S
C1573      C1574   1.349       .  D
C1573      H1585   1.087       .  S
C1574      C1575   1.487       .  S
C1574      H1586   1.086       .  S
C1575      C1576   1.406       .  A
C1575      C1580   1.404       .  A
C1576      C1577   1.405       .  A
C1576      H1587   1.083       .  S
C1577      C1578   1.405       .  A
C1577      H1588   1.083       .  S
C1578      C1579   1.407       .  A
C1579      C1580   1.395       .  A
C1579      H1589   1.083       .  S
C1580      H1590   1.083       .  S
C1591      C1596   1.406       .  A
C1592      C1593   1.400       .  A
C1592      H1605   1.083       .  S
C1593      C1594   1.406       .  A
C1593      H1606   1.083       .  S
C1594      C1595   1.410       .  A
C1594      C1597   1.493       .  S
C1595      H1607   1.080       .  S
C1596      H1608   1.082       .  S
C1597      C1598   1.350       .  D
C1597      H1609   1.084       .  S
C1598      C1599   1.494       .  S
C1598      H1610   1.085       .  S
C1599      C1600   1.404       .  A
C1599      C1604   1.410       .  A
C1600      C1601   1.399       .  A
C1600      H1611   1.083       .  S
C1601      C1602   1.406       .  A
C1601      H1612   1.083       .  S
C1602      C1603   1.405       .  A
C1603      C1604   1.401       .  A
C1603      H1613   1.083       .  S
C1604      H1614   1.081       .  S
C1615      C1616   1.403       .  A
C1615      C1620   1.408       .  A
C1616      C1617   1.398       .  A
C1616      H1629   1.083       .  S
C1617      C1618   1.405       .  A
C1617      H1630   1.083       .  S
C1618      C1619   1.406       .  A
C1618      C1621   1.486       .  S
C1619      C1620   1.399       .  A
C1619      H1631   1.082       .  S
C1620      H1632   1.083       .  S
C1621      C1622   1.351       .  D
C1621      H1633   1.085       .  S
C1622      C1623   1.489       .  S
C1622      H1634   1.085       .  S
C1623      C1624   1.408       .  A
C1623      C1628   1.406       .  A
C1624      C1625   1.403       .  A
C1624      H1635   1.083       .  S
C1625      C1626   1.402       .  A
C1625      H1636   1.083       .  S
C1626      C1627   1.402       .  A
C1627      C1628   1.394       .  A
C1627      H1637   1.084       .  S
C1628      H1638   1.082       .  S
C1639      C1640   1.401       .  A
C1640      C1641   1.400   1_556  A
C1640      H1653   1.083       .  S
C1641      C1642   1.405       .  A
C1641      H1654   1.083       .  S
C1642      C1645   1.485       .  S
C1643      C1644   1.400       .  A
C1643      H1655   1.081       .  S
C1644      H1656   1.083       .  S
C1645      H1657   1.086       .  S
C1646      C1647   1.489       .  S
C1646      H1658   1.083       .  S
C1647      C1648   1.405       .  A
C1648      C1649   1.402       .  A
C1648      H1659   1.083       .  S
C1649      C1650   1.406       .  A
C1649      H1660   1.082       .  S
C1651      C1652   1.397       .  A
C1651      H1661   1.083       .  S
C1652      H1662   1.083       .  S
C1663      C1664   1.407       .  A
C1663      C1668   1.409       .  A
C1664      C1665   1.400       .  A
C1664      H1677   1.083   1_565  S
C1665      C1666   1.406       .  A
C1665      H1678   1.083       .  S
C1666      C1667   1.412       .  A
C1666      C1669   1.504       .  S
C1667      C1668   1.410       .  A
C1667      H1679   1.080       .  S
C1668      H1680   1.083       .  S
C1669      C1670   1.355       .  D
C1669      H1681   1.085       .  S
C1670      C1671   1.504       .  S
C1670      H1682   1.084       .  S
C1671      C1672   1.409       .  A
C1671      C1676   1.410       .  A
C1672      C1673   1.407       .  A
C1672      H1683   1.083       .  S
C1673      C1674   1.405       .  A
C1673      H1684   1.082       .  S
C1674      C1675   1.406       .  A
C1675      C1676   1.402       .  A
C1675      H1685   1.082       .  S
C1676      H1686   1.081       .  S
C1687      C1688   1.405       .  A
C1687      C1692   1.404       .  A
C1688      C1689   1.394       .  A
C1688      H1701   1.083   1_565  S
C1689      C1690   1.401       .  A
C1689      H1702   1.084       .  S
C1690      C1691   1.407       .  A
C1690      C1693   1.478       .  S
C1691      C1692   1.396       .  A
C1691      H1703   1.082       .  S
C1692      H1704   1.083       .  S
C1693      C1694   1.346       .  D
C1693      H1705   1.084       .  S
C1694      C1695   1.483       .  S
C1694      H1706   1.086       .  S
C1695      C1696   1.406       .  A
C1695      C1700   1.407       .  A
C1696      C1697   1.399       .  A
C1696      H1707   1.083       .  S
C1697      C1698   1.401       .  A
C1697      H1708   1.083       .  S
C1698      C1699   1.401       .  A
C1699      C1700   1.391       .  A
C1699      H1709   1.084       .  S
C1700      H1710   1.080       .  S
C1711      C1712   1.405       .  A
C1711      C1716   1.406       .  A
C1712      C1713   1.402       .  A
C1712      H1725   1.082       .  S
C1713      C1714   1.405       .  A
C1713      H1726   1.083       .  S
C1714      C1715   1.404       .  A
C1714      C1717   1.485       .  S
C1715      C1716   1.395       .  A
C1715      H1727   1.082       .  S
C1716      H1728   1.083       .  S
C1717      C1718   1.352       .  D
C1717      H1729   1.085       .  S
C1718      C1719   1.487       .  S
C1718      H1730   1.086       .  S
C1719      C1720   1.407       .  A
C1719      C1724   1.406       .  A
C1720      C1721   1.401       .  A
C1720      H1731   1.083       .  S
C1721      C1722   1.401       .  A
C1721      H1732   1.083       .  S
C1722      C1723   1.404       .  A
C1723      C1724   1.396       .  A
C1723      H1733   1.084       .  S
C1724      H1734   1.082       .  S
C1735      C1736   1.401       .  A
C1735      C1740   1.403       .  A
C1736      C1737   1.394       .  A
C1736      H1749   1.081       .  S
C1737      C1738   1.402       .  A
C1737      H1750   1.083       .  S
C1738      C1739   1.408       .  A
C1738      C1741   1.483       .  S
C1739      C1740   1.400       .  A
C1739      H1751   1.082       .  S
C1740      H1752   1.083       .  S
C1741      C1742   1.346   1_565  D
C1741      H1753   1.085       .  S
C1742      C1743   1.484       .  S
C1742      H1754   1.086       .  S
C1743      C1744   1.402       .  A
C1743      C1748   1.408       .  A
C1744      C1745   1.394       .  A
C1744      H1755   1.084       .  S
C1745      C1746   1.405       .  A
C1745      H1756   1.083       .  S
C1746      C1747   1.405       .  A
C1747      C1748   1.400       .  A
C1747      H1757   1.083       .  S
C1748      H1758   1.082       .  S
C1759      C1760   1.402       .  A
C1759      C1764   1.402       .  A
C1760      C1761   1.400       .  A
C1761      C1762   1.405       .  A
C1761      H1774   1.083       .  S
C1762      C1763   1.409       .  A
C1762      C1765   1.491       .  S
C1763      C1764   1.400       .  A
C1763      H1775   1.082       .  S
C1764      H1776   1.081       .  S
C1765      C1766   1.351       .  D
C1765      H1777   1.083       .  S
C1766      C1767   1.495       .  S
C1766      H1778   1.086       .  S
C1767      C1768   1.411       .  A
C1767      C1772   1.405       .  A
C1768      C1769   1.404       .  A
C1768      H1779   1.080       .  S
C1769      C1770   1.407       .  A
C1769      H1780   1.083       .  S
C1770      C1771   1.404       .  A
C1771      C1772   1.397       .  A
C1771      H1781   1.083       .  S
C1772      H1782   1.083       .  S
