geometry optimzed in LAMMPS
_audit_creation_date              2020-12-01 
_audit_creation_method            'lammps2cif' 
_symmetry_space_group_name_H-M    'P1' 
_symmetry_Int_Tables_number       1 
_symmetry_cell_setting            triclinic 
loop_ 
_symmetry_equiv_pos_as_xyz 
  x,y,z 
_cell_length_a                    45.95604962 
_cell_length_b                    45.925651588024465 
_cell_length_c                    33.56185346847415 
_cell_angle_alpha                 90.09934042219108 
_cell_angle_beta                  89.96471575335376 
_cell_angle_gamma                 126.94341899633692 
loop_ 
_atom_site_label 
_atom_site_type_symbol 
_atom_site_fract_x 
_atom_site_fract_y 
_atom_site_fract_z 
_atom_site_charge 
C1          C  0.56636492  0.86359855  0.00556822     0.03400
C2          C  0.56355338  0.87719441  0.30277569    -0.12800
C3          C  0.55554018  0.90223319  0.30268985     0.00900
C4          C  0.55045974  0.91394496  0.33879002    -0.11300
C5          C  0.55375206  0.90101236  0.04162106     0.03400
C6          C  0.56107899  0.87546629  0.04162723    -0.10700
H7          H  0.56832907  0.86886889  0.27480929     0.09000
H8          H  0.54602858  0.93462827  0.33880083     0.06500
H9          H  0.56371906  0.86562828  0.06971373     0.06400
C10         C  0.37425714  0.89747432  0.00590623     0.03400
C11         C  0.39269984  0.91155953  0.04229037    -0.12800
C12         C  0.43068129  0.93619815  0.04291182     0.00900
C13         C  0.45026693  0.94843196  0.00722415    -0.11300
C14         C  0.43187142  0.93537388  0.30420040     0.03400
C15         C  0.39397177  0.90984213  0.30348781    -0.10700
H16         H  0.37768301  0.90169719  0.07006974     0.09000
H17         H  0.47978171  0.96698083  0.00778894     0.06500
H18         H  0.37998744  0.89866776  0.27527160     0.06400
C19         C  0.55683369  0.91944763  0.26534573     0.42700
N20         N  0.54112513  0.93655036  0.21598482     0.01600
C21         C  0.65274814  0.08770848  0.09735245    -0.06300
H22         H  0.65949373  0.11433689  0.25295408     0.07100
C23         C  0.52930924  0.06628167  0.24675073    -0.06600
Co24       Co  0.60565929  0.99782443  0.17174598     0.74200
N25         N  0.63410017  0.06703962  0.21481109    -0.25800
Co26       Co  0.60589138  0.07364887  0.17219096     0.74100
C27         C  0.56220983  0.09635400  0.26611823     0.42800
N28         N  0.48448808  0.97725797  0.21698043     0.01200
N29         N  0.57723633  0.07889734  0.21641744     0.01300
N30         N  0.65154926  0.03760824  0.09799736    -0.46600
H31         H  0.61775791  0.96207915  0.25220557     0.07100
N32         N  0.63402112  0.03823786  0.21487656     0.01600
N33         N  0.57645807  0.07852452  0.12916874     0.01400
C34         C  0.56116824  0.09574735  0.07972707     0.43000
N35         N  0.48428874  0.94837941  0.21644560    -0.25200
C36         C  0.58815908  0.94829028  0.09860371    -0.06200
N37         N  0.52778825  0.91316065  0.24605157    -0.46300
N38         N  0.59003200  0.10197386  0.09921973    -0.46600
C39         C  0.55524407  0.91833964  0.07902701     0.42700
N40         N  0.63292914  0.03759989  0.12809636     0.01600
N41         N  0.48333702  0.94825895  0.12989908    -0.25300
N42         N  0.57705767  0.95808744  0.21518195    -0.25800
N43         N  0.48344847  0.97708921  0.13017230     0.01300
H44         H  0.45767434  0.90119987  0.09131439     0.07100
H45         H  0.50010413  0.05324293  0.09246240     0.07200
N46         N  0.63308192  0.06645747  0.12833395    -0.25800
N47         N  0.54130136  0.05725449  0.21634931    -0.25400
N48         N  0.54025842  0.93618727  0.12842877     0.01600
C49         C  0.66718089  0.07003380  0.26435885     0.43000
C50         C  0.46453294  0.92686377  0.24722948    -0.06700
N51         N  0.54052800  0.05707816  0.12988989    -0.25400
H52         H  0.50113671  0.05338864  0.25426598     0.07200
N53         N  0.65330908  0.03874135  0.24450589    -0.46600
H54         H  0.45942484  0.90125629  0.25464761     0.07100
C55         C  0.45009872  0.94571281  0.08062408     0.42800
C56         C  0.58948008  0.94919723  0.24524466    -0.06200
Co57       Co  0.51157225  0.94141190  0.17263732     0.73800
N58         N  0.46584814  0.97702706  0.24722368    -0.46400
C59         C  0.66484569  0.06847490  0.07771811     0.43100
N60         N  0.52645705  0.91236814  0.09864482    -0.46300
Co61       Co  0.51183042  0.01724077  0.17336523     0.73900
C62         C  0.52832053  0.06603883  0.09964965    -0.06700
C63         C  0.65445329  0.08879746  0.24521782    -0.06200
N64         N  0.57619647  0.95762007  0.12875604    -0.25800
N65         N  0.59102915  0.10267388  0.24621758    -0.46500
H66         H  0.65786859  0.11326888  0.08963740     0.07100
C67         C  0.46287089  0.92675663  0.09935366    -0.06700
Cl68       Cl  0.55873285  0.00752462  0.17246899    -0.49700
C69         C  0.45247689  0.94597071  0.26721333     0.42900
H70         H  0.61632865  0.96094833  0.09131273     0.07100
N71         N  0.46411923  0.97685839  0.10078408    -0.46400
C72         C  0.55591233  0.15437091  0.00645640     0.03400
C73         C  0.55804978  0.14029607  0.30361133    -0.12800
C74         C  0.56385766  0.11363211  0.30353070     0.00900
C75         C  0.56652146  0.10017184  0.33960747    -0.11300
C76         C  0.56302477  0.11305631  0.04237913     0.03100
C77         C  0.55798715  0.14021118  0.04248878    -0.10700
H78         H  0.55451227  0.14957641  0.27563516     0.09000
H79         H  0.56947186  0.07844802  0.33956034     0.06500
H80         H  0.55504230  0.14986237  0.07060215     0.06400
C81         C  0.74304219  0.11710848  0.00592563     0.03400
C82         C  0.72340755  0.10323355  0.04161560    -0.12800
C83         C  0.68540186  0.07882502  0.04076453     0.00900
C84         C  0.66695099  0.06690786  0.00437380    -0.11300
C85         C  0.68653827  0.07989972  0.30208782     0.03400
C86         C  0.72444172  0.10501937  0.30279600    -0.10700
H87         H  0.73751578  0.11217823  0.06996148     0.09000
H88         H  0.63743050  0.04855202  0.00378254     0.06500
H89         H  0.73933232  0.11612866  0.27506429     0.06400
C90         C  0.06766261  0.59937085  0.24741353     0.42700
N91         N  0.07978249  0.58025502  0.19667804     0.01600
C92         C  0.96024131  0.43202146  0.07754186    -0.06300
H93         H  0.95321327  0.40547698  0.23711746     0.07100
C94         C  0.08089878  0.44507714  0.22660842    -0.06600
Co95       Co  0.01274233  0.52134960  0.15335536     0.74200
N96         N  0.98066710  0.45181230  0.19719850    -0.25800
Co97       Co  0.00659383  0.44254496  0.15287788     0.74100
C98         C  0.04701156  0.41569522  0.24529161     0.42800
N99         N  0.13153216  0.53380314  0.19531440     0.01200
N100        N  0.03435595  0.43509344  0.19547711     0.01300
N101        N  0.96415266  0.48349250  0.08137602    -0.46600
H102        H  0.00589863  0.55877353  0.23705880     0.07100
N103        N  0.98254454  0.48163472  0.19628346     0.01600
N104        N  0.03356442  0.43507232  0.10920158     0.01400
C105        C  0.04500638  0.41594977  0.05786210     0.43000
N106        N  0.13337197  0.56359243  0.19664230    -0.25200
C107        C  0.03396587  0.57104717  0.07826692    -0.06200
N108        N  0.09508012  0.60413769  0.22610036    -0.46300
N109        N  0.01789788  0.41119624  0.07975812    -0.46600
C110        C  0.06827437  0.60052139  0.06000813     0.42700
N111        N  0.98259612  0.48189317  0.11029992     0.01600
N112        N  0.13298888  0.56378836  0.10867579    -0.25300
N113        N  0.04389430  0.56032123  0.19721040    -0.25800
N114        N  0.13087894  0.53384202  0.10933498     0.01300
H115        H  0.16004792  0.60990461  0.06843298     0.07100
H116        H  0.10691402  0.45670398  0.06740982     0.07200
N117        N  0.98049799  0.45195605  0.10926163    -0.25800
N118        N  0.07024466  0.45506572  0.19562174    -0.25400
N119        N  0.07985624  0.58075665  0.11046196     0.01600
C120        C  0.94828421  0.45215393  0.24632809     0.43000
C121        C  0.15404322  0.58372281  0.22806520    -0.06700
N122        N  0.06944879  0.45510816  0.10819964    -0.25400
H123        H  0.10866384  0.45647167  0.23448716     0.07200
N124        N  0.96354430  0.48283591  0.22491398    -0.46600
H125        H  0.16065369  0.60971108  0.23698425     0.07100
C126        C  0.16433624  0.56285791  0.05880783     0.42800
C127        C  0.03357479  0.57014818  0.22877580    -0.06200
Co128      Co  0.10715672  0.57301370  0.15316296     0.73800
N129        N  0.15055976  0.53252260  0.22382937    -0.46400
C130        C  0.94925059  0.45301638  0.05959053     0.43100
N131        N  0.09540804  0.60488993  0.08138881    -0.46300
Co132      Co  0.10101381  0.49426923  0.15210409     0.73900
C133        C  0.07934342  0.44526114  0.07622260    -0.06700
C134        C  0.95998070  0.43158216  0.22855969    -0.06200
N135        N  0.04397725  0.56081660  0.10973045    -0.25800
N136        N  0.01935862  0.41103319  0.22464300    -0.46500
H137        H  0.95365018  0.40604852  0.06861209     0.07100
C138        C  0.15329958  0.58382035  0.07703445    -0.06700
Cl139      Cl  0.05686551  0.50779298  0.15294135    -0.49700
C140        C  0.16577601  0.56316168  0.24549143     0.42900
H141        H  0.00636477  0.55973776  0.06973019     0.07100
N142        N  0.14935886  0.53233433  0.08035370    -0.46400
C143        C  0.22636190  0.56227870  0.98658474     0.03400
C144        C  0.21316355  0.56519648  0.28357427    -0.12800
C145        C  0.18539799  0.56955892  0.28291168     0.00900
C146        C  0.17198040  0.57287929  0.31884477    -0.11300
C147        C  0.18457465  0.56941183  0.02191383     0.03400
C148        C  0.21181413  0.56438049  0.02225160    -0.10700
H149        H  0.22327693  0.56232978  0.25579238     0.09000
H150        H  0.14921497  0.57421650  0.31846107     0.06500
H151        H  0.22054960  0.56040086  0.05039647     0.06400
C152        C  0.99903467  0.33918865  0.98392133     0.03400
C153        C  0.01478724  0.35824543  0.28171727    -0.12800
C154        C  0.04136504  0.39598109  0.28205281     0.00900
C155        C  0.05459075  0.41474230  0.98505638    -0.11300
C156        C  0.03872151  0.39592166  0.02086919     0.03400
C157        C  0.01098238  0.35827555  0.02011403    -0.10700
H158        H  0.00393471  0.34416266  0.25346085     0.09000
H159        H  0.07370975  0.44422844  0.31856498     0.06500
H160        H  0.99701269  0.34425119  0.04749793     0.06400
C161        C  0.88769578  0.45364908  0.32030329     0.03400
C162        C  0.90096393  0.45058881  0.28405476    -0.12800
C163        C  0.92842685  0.44575137  0.28359286     0.00900
C164        C  0.94163167  0.44243929  0.31965773    -0.11300
C165        C  0.92923344  0.44649969  0.02258704     0.03400
C166        C  0.90218237  0.45175403  0.02272154    -0.10700
H167        H  0.89100649  0.45350225  0.25620833     0.09000
H168        H  0.96418734  0.44077227  0.31946664     0.06500
H169        H  0.89339736  0.45587051  0.05078127     0.06400
C170        C  0.11641829  0.67648966  0.98592273     0.03400
C171        C  0.10118140  0.65722194  0.28364120    -0.12800
C172        C  0.07370402  0.61964042  0.28399476     0.00900
C173        C  0.05930504  0.60131389  0.98701936    -0.11300
C174        C  0.07476868  0.62033359  0.02290127     0.03400
C175        C  0.10315957  0.65779712  0.02215233    -0.10700
H176        H  0.11295514  0.67096183  0.25545131     0.09000
H177        H  0.03961253  0.57188548  0.32066511     0.06500
H178        H  0.11679855  0.67186533  0.04968735     0.06400
C179        C  0.64494477  0.51049338  0.08337764     0.42700
N180        N  0.62530008  0.52413851  0.13232969     0.01600
C181        C  0.47636407  0.40565255  0.25130160    -0.06300
H182        H  0.45011409  0.39941407  0.09199976     0.07100
C183        C  0.48842901  0.52641115  0.10398827    -0.06600
Co184      Co  0.56586191  0.45753607  0.17590835     0.74200
N185        N  0.49629731  0.42602730  0.13209911    -0.25800
Co186      Co  0.48698899  0.45185103  0.17615212     0.74100
C187        C  0.45948661  0.49309593  0.08406987     0.42800
N188        N  0.57862577  0.57559562  0.13319424     0.01200
N189        N  0.47940164  0.47937648  0.13257539     0.01300
N190        N  0.52759820  0.40917757  0.24773440    -0.46600
H191        H  0.60484627  0.44920287  0.09623182     0.07100
N192        N  0.52608034  0.42782400  0.13279087     0.01600
N193        N  0.47994504  0.47932911  0.22036631     0.01400
C194        C  0.46171363  0.49298682  0.27063297     0.43000
N195        N  0.60846908  0.57751121  0.13236928    -0.25200
C196        C  0.61527872  0.47730894  0.24964376    -0.06200
N197        N  0.64903814  0.53866434  0.10251003    -0.46300
N198        N  0.45685831  0.46476805  0.25077859    -0.46600
C199        C  0.64349319  0.51074372  0.26994275     0.42700
N200        N  0.52619617  0.42770615  0.21876939     0.01600
N201        N  0.60855536  0.57781678  0.22011608    -0.25300
N202        N  0.60549549  0.48824269  0.13293660    -0.25800
N203        N  0.57873162  0.57589921  0.21916982     0.01300
H204        H  0.65452705  0.60476013  0.26057948     0.07100
H205        H  0.50127955  0.55426413  0.25750976     0.07200
N206        N  0.49640112  0.42584452  0.21970510    -0.25800
N207        N  0.49919196  0.51526078  0.13342886    -0.25400
N208        N  0.62499324  0.52422986  0.21998457     0.01600
C209        C  0.49662290  0.39449692  0.08226011     0.43000
C210        C  0.62862451  0.59775324  0.10084019    -0.06700
N211        N  0.49974889  0.51523304  0.21978192    -0.25400
H212        H  0.49959027  0.55435396  0.09732906     0.07200
N213        N  0.52724148  0.40919660  0.10365215    -0.46600
H214        H  0.65461170  0.60428318  0.09223736     0.07100
C215        C  0.60780816  0.60954224  0.26968833     0.42800
C216        C  0.61607139  0.47713248  0.10316610    -0.06200
Co217      Co  0.61785683  0.55170896  0.17618742     0.73800
N218        N  0.57734772  0.59419118  0.10421729    -0.46400
C219        C  0.49711453  0.39444732  0.26930928     0.43100
N220        N  0.64818013  0.53888475  0.25029542    -0.46300
Co221      Co  0.53898457  0.54594557  0.17634894     0.73900
C222        C  0.48989848  0.52634267  0.25029882    -0.06700
C223        C  0.47607559  0.40584860  0.10052392    -0.06200
N224        N  0.60525674  0.48832610  0.21927688    -0.25800
N225        N  0.45553751  0.46489506  0.10283567    -0.46500
H226        H  0.45045332  0.39921393  0.26008640     0.07100
C227        C  0.62857513  0.59819673  0.25175940    -0.06700
Cl228      Cl  0.55243209  0.50174816  0.17607300    -0.49700
C229        C  0.60795060  0.60902643  0.08278408     0.42900
H230        H  0.60397336  0.44941550  0.25678967     0.07100
N231        N  0.57731694  0.59456295  0.24805199    -0.46400
C232        C  0.49512601  0.33179609  0.00941892     0.03400
C233        C  0.49304439  0.34608716  0.04531293    -0.12800
C234        C  0.48950226  0.37432793  0.04526000     0.00900
C235        C  0.48676057  0.38769069  0.00907306    -0.11300
C236        C  0.49042637  0.37466606  0.30641300     0.03400
C237        C  0.49487533  0.34703138  0.30673036    -0.10700
H238        H  0.49562289  0.33620376  0.07341906     0.09000
H239        H  0.48590196  0.41077514  0.00898127     0.06500
H240        H  0.49933414  0.33817187  0.27894439     0.06400
C241        C  0.40749881  0.50620550  0.00867594     0.03400
C242        C  0.41900250  0.50151327  0.04530533    -0.12800
C243        C  0.44224485  0.49121069  0.04637921     0.00900
C244        C  0.45395206  0.48543691  0.01066950    -0.11300
C245        C  0.44320575  0.49076417  0.30736474     0.03400
C246        C  0.41958542  0.50049396  0.30647393    -0.10700
H247        H  0.41093431  0.50713141  0.07288541     0.09000
H248        H  0.47363571  0.47967742  0.01139855     0.06500
H249        H  0.41167284  0.50496155  0.27804936     0.06400
C250        C  0.69889457  0.49965663  0.00822509     0.03400
C251        C  0.68643124  0.50471823  0.30598397    -0.12800
C252        C  0.66181282  0.51315564  0.30679527     0.00900
C253        C  0.65031877  0.51776419  0.01000648    -0.11300
C254        C  0.66238251  0.51259465  0.04576008     0.03400
C255        C  0.68667414  0.50358270  0.04481988    -0.10700
H256        H  0.69499287  0.50090458  0.27758985     0.09000
H257        H  0.62999413  0.52266922  0.01060365     0.06500
H258        H  0.69518095  0.49856039  0.07243536     0.06400
C259        C  0.60740203  0.67061792  0.01063201     0.03400
C260        C  0.61071503  0.65707900  0.04631461    -0.12800
C261        C  0.61484013  0.62921645  0.04593521     0.00900
C262        C  0.61781616  0.61611272  0.00959822    -0.11300
C263        C  0.61405934  0.62912837  0.30704430     0.03400
C264        C  0.60893191  0.65634796  0.30771490    -0.10700
H265        H  0.60911357  0.66749608  0.07455921     0.09000
H266        H  0.61911186  0.59330023  0.00929374     0.06500
H267        H  0.60484470  0.66554539  0.28000248     0.06400
C268        C  0.83686829  0.49500727  0.30638454    -0.22200
C269        C  0.80515830  0.47069500  0.99520233     0.09800
C270        C  0.80046930  0.44058557  0.01383646     0.10200
C271        C  0.82757054  0.43551584  0.00980769    -0.17100
C272        C  0.85965121  0.46013124  0.98821797    -0.27500
C273        C  0.86463134  0.49075163  0.30351812     0.18500
C274        C  0.77781444  0.47794744  0.99960496     0.12500
C275        C  0.76742532  0.41436758  0.03897186    -0.11900
H276        H  0.82391285  0.41233313  0.02400756     0.12800
C277        C  0.89939041  0.52054382  0.28294494    -0.22700
H278        H  0.84051724  0.51822542  0.29228298     0.08400
C279        C  0.78498891  0.50735961  0.02276044     0.04700
C280        C  0.75833681  0.51316357  0.02585776    -0.20000
C281        C  0.72446010  0.48999104  0.00684976    -0.12200
C282        C  0.71667633  0.45948622  0.31858237     0.13400
C283        C  0.74378853  0.45446632  0.31442100    -0.22700
C284        C  0.82052009  0.53234999  0.04467904    -0.05700
H285        H  0.76418830  0.53631336  0.04266308     0.15000
C286        C  0.67981274  0.43096667  0.30073692    -0.15900
H287        H  0.73810387  0.43161468  0.29710859     0.09300
H288        H  0.91003526  0.54716642  0.29692265     0.07200
H289        H  0.89379042  0.52150634  0.25098918     0.08400
H290        H  0.92126074  0.51721307  0.28510082     0.07400
H291        H  0.74245831  0.40018709  0.02041412     0.02300
H292        H  0.76532078  0.42941194  0.06332510     0.02800
H293        H  0.76886490  0.39327320  0.05269467     0.06300
H294        H  0.82104304  0.55304562  0.06253681     0.05200
H295        H  0.84343974  0.54704169  0.02322235    -0.00500
H296        H  0.82462216  0.51621202  0.06528606     0.01000
H297        H  0.68216309  0.43096079  0.26781240     0.04600
H298        H  0.65903879  0.43504327  0.30835485     0.06600
H299        H  0.66967364  0.40371132  0.31225691     0.07400
C300        C  0.36697804  0.55569152  0.31487251    -0.22200
C301        C  0.33310604  0.53387357  0.00063322     0.09800
C302        C  0.32477039  0.50444809  0.02450550     0.10200
C303        C  0.34984519  0.49649962  0.02717880    -0.17100
C304        C  0.38348375  0.51782185  0.00734062    -0.27500
C305        C  0.39271507  0.54875877  0.31887319     0.18500
C306        C  0.30690275  0.54252076  0.99566753     0.12500
C307        C  0.28967265  0.48178381  0.04762696    -0.11900
H308        H  0.34296257  0.47319840  0.04442078     0.12800
C309        C  0.42983581  0.57591509  0.30085089    -0.22700
H310        H  0.37366421  0.57876804  0.29730231     0.08400
C311        C  0.31207078  0.57268498  0.01484597     0.04700
C312        C  0.28574669  0.57881628  0.01042599    -0.20000
C313        C  0.25391848  0.55509705  0.98795722    -0.12200
C314        C  0.24856381  0.52446355  0.30258734     0.13400
C315        C  0.27560590  0.51923676  0.30585965    -0.22700
C316        C  0.34478275  0.59775983  0.04093595    -0.05700
H317        H  0.28974959  0.60202690  0.02509779     0.15000
C318        C  0.21402996  0.49546756  0.28096831    -0.15900
H319        H  0.27157957  0.49589730  0.29147457     0.09300
H320        H  0.44124394  0.60361354  0.31215295     0.07200
H321        H  0.42744691  0.57574539  0.26792229     0.08400
H322        H  0.44967439  0.57060436  0.30859724     0.07400
H323        H  0.26611583  0.46782455  0.02693025     0.02300
H324        H  0.28774995  0.49957915  0.06811142     0.02800
H325        H  0.28799348  0.46061338  0.06576588     0.06300
H326        H  0.34404182  0.61932367  0.05467934     0.05200
H327        H  0.37009147  0.61131089  0.02305168    -0.00500
H328        H  0.34556779  0.58189359  0.06527383     0.01000
H329        H  0.22012919  0.49522193  0.24900931     0.04600
H330        H  0.19230791  0.49899290  0.28323678     0.06600
H331        H  0.20283945  0.46841680  0.29403255     0.07400
C332        C  0.83452310  0.20893833  0.01830487    -0.22200
C333        C  0.85678798  0.20373375  0.32927959     0.09800
C334        C  0.84228798  0.16937491  0.31256023     0.10200
C335        C  0.80530824  0.14083171  0.31820390    -0.17100
C336        C  0.78261794  0.14632550  0.00610649    -0.27500
C337        C  0.79738517  0.18087264  0.02299353     0.18500
C338        C  0.89438589  0.23582491  0.32133479     0.12500
C339        C  0.86543453  0.16336218  0.28749263    -0.11900
H340        H  0.79369509  0.11445710  0.30482003     0.12800
C341        C  0.77390264  0.18917962  0.04352414    -0.22700
H342        H  0.84606380  0.23568990  0.03060125     0.08400
C343        C  0.90126902  0.26289103  0.29453816     0.04700
C344        C  0.93628821  0.29565860  0.29244739    -0.20000
C345        C  0.96477401  0.30170743  0.98258019    -0.12200
C346        C  0.95846979  0.27325671  0.00684113     0.13400
C347        C  0.92305103  0.24076506  0.00977633    -0.22700
C348        C  0.87154299  0.25744270  0.26862473    -0.05700
H349        H  0.94101549  0.31731373  0.27368559     0.15000
C350        C  0.98834189  0.27616577  0.02965536    -0.15900
H351        H  0.91761287  0.21945867  0.02971599     0.09300
H352        H  0.78972187  0.21841577  0.05179109     0.07200
H353        H  0.76231791  0.17320226  0.07136505     0.08400
H354        H  0.75152955  0.18263089  0.02338013     0.07400
H355        H  0.88840263  0.16865335  0.30553596     0.02300
H356        H  0.87641625  0.18212413  0.26157642     0.02800
H357        H  0.84958801  0.13499336  0.27603552     0.06300
H358        H  0.88198016  0.28104173  0.24859237     0.05200
H359        H  0.84976955  0.25399898  0.28734881    -0.00500
H360        H  0.85975776  0.23281912  0.24980393     0.01000
H361        H  0.98280687  0.27438917  0.06210865     0.04600
H362        H  0.01562356  0.30186869  0.02360402     0.06600
H363        H  0.98923129  0.25337372  0.02094260     0.07400
C364        C  0.55981774  0.23839444  0.32001656    -0.22200
C365        C  0.52947562  0.22968763  0.00833519     0.09800
C366        C  0.50833777  0.19674171  0.02974201     0.10200
C367        C  0.51774335  0.17285021  0.02849359    -0.17100
C368        C  0.54818540  0.18140840  0.00689357    -0.27500
C369        C  0.56994073  0.21503724  0.31960795     0.18500
C370        C  0.52079955  0.25588843  0.00903326     0.12500
C371        C  0.47621008  0.18708030  0.05434267    -0.11900
H372        H  0.50110291  0.14718426  0.04434898     0.12800
C373        C  0.60471683  0.22802475  0.29833466    -0.22700
H374        H  0.57623028  0.26405722  0.30408968     0.08400
C375        C  0.54067123  0.28740886  0.03303420     0.04700
C376        C  0.53148485  0.31149271  0.03266756    -0.20000
C377        C  0.50219560  0.30425512  0.00973147    -0.12200
C378        C  0.48135209  0.27173811  0.32028720     0.13400
C379        C  0.49153690  0.24845079  0.31952804    -0.22700
C380        C  0.57115169  0.29529687  0.05946391    -0.05700
H381        H  0.54746334  0.33629838  0.05018280     0.15000
C382        C  0.44743476  0.25983725  0.29780204    -0.15900
H383        H  0.47594716  0.22376087  0.30175087     0.09300
H384        H  0.62738271  0.25515419  0.31016023     0.07200
H385        H  0.60169236  0.23058725  0.26597746     0.08400
H386        H  0.61272057  0.20980696  0.30240670     0.07400
H387        H  0.45544314  0.18487865  0.03490247     0.02300
H388        H  0.48526832  0.20849797  0.07716502     0.02800
H389        H  0.46316187  0.16065667  0.06995044     0.06300
H390        H  0.58331370  0.32071731  0.07696113     0.05200
H391        H  0.59300155  0.29849429  0.04111564    -0.00500
H392        H  0.56058907  0.27248961  0.08072860     0.01000
H393        H  0.45175097  0.25898662  0.26539621     0.04600
H394        H  0.43919441  0.27777370  0.30286060     0.06600
H395        H  0.42437315  0.23212723  0.30772649     0.07400
C396        C  0.28226357  0.80648823  0.02130255    -0.22200
C397        C  0.26000276  0.81100960  0.33136634     0.09800
C398        C  0.27479200  0.84452472  0.31236175     0.10200
C399        C  0.31209475  0.87278784  0.31649042    -0.17100
C400        C  0.33481080  0.86775730  0.00507681    -0.27500
C401        C  0.31970509  0.83392769  0.02404628     0.18500
C402        C  0.22231795  0.77870680  0.32412539     0.12500
C403        C  0.25146984  0.84993857  0.28682740    -0.11900
H404        H  0.32379652  0.89863333  0.30181108     0.12800
C405        C  0.34213187  0.82455948  0.04505778    -0.22700
H406        H  0.27062393  0.78036576  0.03533983     0.08400
C407        C  0.21529079  0.75067102  0.29870762     0.04700
C408        C  0.17996687  0.71834132  0.29633725    -0.20000
C409        C  0.15135389  0.71350565  0.98504162    -0.12200
C410        C  0.15801842  0.74263325  0.00844506     0.13400
C411        C  0.19367424  0.77480804  0.01145987    -0.22700
C412        C  0.24516753  0.75461404  0.27453848    -0.05700
H413        H  0.17501636  0.69607852  0.27846758     0.15000
C414        C  0.12829688  0.74083461  0.03021256    -0.15900
H415        H  0.19927530  0.79674930  0.03049234     0.09300
H416        H  0.33614178  0.79925499  0.03194429     0.07200
H417        H  0.33487634  0.81981521  0.07716044     0.08400
H418        H  0.37184425  0.84568102  0.04225742     0.07400
H419        H  0.22931611  0.84622233  0.30508846     0.02300
H420        H  0.23934645  0.82978492  0.26211408     0.02800
H421        H  0.26748862  0.87766343  0.27364764     0.06300
H422        H  0.23460337  0.73042556  0.25535394     0.05200
H423        H  0.26612559  0.75779904  0.29453046    -0.00500
H424        H  0.25802528  0.77887714  0.25496525     0.01000
H425        H  0.13339524  0.74295407  0.06279578     0.04600
H426        H  0.10082899  0.71539846  0.02405697     0.06600
H427        H  0.12817430  0.76390161  0.02067085     0.07400
C428        C  0.56664857  0.72143346  0.02847978    -0.22200
C429        C  0.59154302  0.75406699  0.34137765     0.09800
C430        C  0.62153241  0.75913873  0.32189697     0.10200
C431        C  0.62618655  0.73163097  0.32379079    -0.17100
C432        C  0.60134885  0.69895096  0.01091773    -0.27500
C433        C  0.57075840  0.69349761  0.02961490     0.18500
C434        C  0.58517019  0.78217492  0.34001008     0.12500
C435        C  0.64806896  0.79309493  0.29818092    -0.11900
H436        H  0.64925917  0.73551250  0.30898748     0.12800
C437        C  0.54135371  0.65774309  0.04890930    -0.22700
H438        H  0.54354067  0.71762789  0.04308338     0.08400
C439        C  0.55667327  0.77715147  0.31715705     0.04700
C440        C  0.55163594  0.80443611  0.31699150    -0.20000
C441        C  0.57458002  0.83683115  0.00550991    -0.12200
C442        C  0.60395795  0.84232691  0.02730940     0.13400
C443        C  0.60831597  0.81458283  0.02825490    -0.22700
C444        C  0.53184449  0.74323504  0.29253919    -0.05700
H445        H  0.52931694  0.80027021  0.30008395     0.15000
C446        C  0.63208789  0.87742996  0.04864246    -0.15900
H447        H  0.63040828  0.81852740  0.04545060     0.09300
H448        H  0.51810293  0.65741625  0.05886923     0.07200
H449        H  0.55202425  0.65277998  0.07552673     0.08400
H450        H  0.53075578  0.63514308  0.02724423     0.07400
H451        H  0.66214951  0.81733264  0.31795318     0.02300
H452        H  0.63330174  0.79623523  0.27447563     0.02800
H453        H  0.66916211  0.79203397  0.28371847     0.06300
H454        H  0.51182682  0.74429896  0.27541778     0.05200
H455        H  0.51639626  0.71894504  0.31211914    -0.00500
H456        H  0.54819157  0.74015363  0.27101460     0.01000
H457        H  0.63051671  0.87233364  0.08117500     0.04600
H458        H  0.62901409  0.89923150  0.04332383     0.06600
H459        H  0.65966283  0.88790434  0.03793960     0.07400
C460        C  0.56636495  0.86359776  0.33890049     0.03400
C461        C  0.56355467  0.87719558  0.63610885    -0.12800
C462        C  0.55554125  0.90223420  0.63602330     0.00900
C463        C  0.55046091  0.91394591  0.67212359    -0.11300
C464        C  0.55375248  0.90101170  0.37495389     0.03400
C465        C  0.56107952  0.87546575  0.37495959    -0.10700
H466        H  0.56833062  0.86887045  0.60814276     0.09000
H467        H  0.54602993  0.93462931  0.67213469     0.06500
H468        H  0.56372004  0.86562755  0.40304693     0.06400
C469        C  0.37425670  0.89747504  0.33923971     0.03400
C470        C  0.39269935  0.91155938  0.37562392    -0.12800
C471        C  0.43068082  0.93619784  0.37624549     0.00900
C472        C  0.45026640  0.94843206  0.34055778    -0.11300
C473        C  0.43187079  0.93537255  0.63753327     0.03400
C474        C  0.39397119  0.90984132  0.63682124    -0.10700
H475        H  0.37768213  0.90169627  0.40340385     0.09000
H476        H  0.47978204  0.96698114  0.34112244     0.06500
H477        H  0.37998637  0.89866649  0.60860505     0.06400
C478        C  0.55683445  0.91944839  0.59867917     0.42700
N479        N  0.54112559  0.93655005  0.54931749     0.01600
C480        C  0.65274859  0.08770833  0.43068529    -0.06300
H481        H  0.65949325  0.11433612  0.58628748     0.07100
C482        C  0.52930950  0.06628069  0.58008404    -0.06600
Co483      Co  0.60565965  0.99782411  0.50507841     0.74200
N484        N  0.63410031  0.06703913  0.54814377    -0.25800
Co485      Co  0.60589154  0.07364834  0.50552366     0.74100
C486        C  0.56221023  0.09635310  0.59945144     0.42800
N487        N  0.48448812  0.97725712  0.55031342     0.01200
N488        N  0.57723654  0.07889668  0.54975023     0.01300
N489        N  0.65154979  0.03760822  0.43132991    -0.46600
H490        H  0.61775811  0.96207993  0.58553917     0.07100
N491        N  0.63402141  0.03823738  0.54820900     0.01600
N492        N  0.57645804  0.07852391  0.46250160     0.01400
C493        C  0.56116794  0.09574714  0.41306049     0.43000
N494        N  0.48428886  0.94837878  0.54977851    -0.25200
C495        C  0.58815938  0.94828972  0.43193636    -0.06200
N496        N  0.52778887  0.91316086  0.57938479    -0.46300
N497        N  0.59003175  0.10197344  0.43255281    -0.46600
C498        C  0.55524437  0.91833882  0.41235994     0.42700
N499        N  0.63292944  0.03759962  0.46142879     0.01600
N500        N  0.48333701  0.94825830  0.46323212    -0.25300
N501        N  0.57705808  0.95808724  0.54851451    -0.25800
N502        N  0.48344851  0.97708857  0.46350548     0.01300
H503        H  0.45767367  0.90119921  0.42464752     0.07100
H504        H  0.50010370  0.05324272  0.42579631     0.07200
N505        N  0.63308211  0.06645710  0.46166656    -0.25800
N506        N  0.54130165  0.05725370  0.54968237    -0.25400
N507        N  0.54025865  0.93618679  0.46176135     0.01600
C508        C  0.66718017  0.07003270  0.59769198     0.43000
C509        C  0.46453256  0.92686254  0.58056214    -0.06700
N510        N  0.54052790  0.05707757  0.46322308    -0.25400
H511        H  0.50113749  0.05338767  0.58759913     0.07200
N512        N  0.65330890  0.03874056  0.57783856    -0.46600
H513        H  0.45942456  0.90125611  0.58797961     0.07100
C514        C  0.45009820  0.94571212  0.41395768     0.42800
C515        C  0.58948077  0.94919766  0.57857771    -0.06200
Co516      Co  0.51157242  0.94141134  0.50597009     0.73800
N517        N  0.46584782  0.97702603  0.58055662    -0.46400
C518        C  0.66484658  0.06847512  0.41105099     0.43100
N519        N  0.52645734  0.91236753  0.43197765    -0.46300
Co520      Co  0.51183049  0.01724002  0.50669836     0.73900
C521        C  0.52832039  0.06603843  0.43298314    -0.06700
C522        C  0.65445297  0.08879657  0.57855082    -0.06200
N523        N  0.57619683  0.95761967  0.46208856    -0.25800
N524        N  0.59102947  0.10267318  0.57955047    -0.46500
H525        H  0.65786926  0.11326894  0.42297066     0.07100
C526        C  0.46287054  0.92675594  0.43268681    -0.06700
Cl527      Cl  0.55873297  0.00752406  0.50580172    -0.49700
C528        C  0.45247603  0.94596936  0.60054579     0.42900
H529        H  0.61632901  0.96094761  0.42464557     0.07100
N530        N  0.46411897  0.97685771  0.43411772    -0.46400
C531        C  0.55591136  0.15437092  0.33979079     0.03400
C532        C  0.55805051  0.14029559  0.63694383    -0.12800
C533        C  0.56385814  0.11363146  0.63686368     0.00900
C534        C  0.56652192  0.10017150  0.67294072    -0.11300
C535        C  0.56302440  0.11305651  0.37571287     0.03100
C536        C  0.55798607  0.14021089  0.37582302    -0.10700
H537        H  0.55451299  0.14957605  0.60896664     0.09000
H538        H  0.56947220  0.07844698  0.67289404     0.06500
H539        H  0.55504119  0.14986175  0.40393616     0.06400
C540        C  0.74304282  0.11710845  0.33925805     0.03400
C541        C  0.72340832  0.10323342  0.37494816    -0.12800
C542        C  0.68540268  0.07882530  0.37409729     0.00900
C543        C  0.66695160  0.06690846  0.33770666    -0.11300
C544        C  0.68653754  0.07989873  0.63542085     0.03400
C545        C  0.72444082  0.10501949  0.63612891    -0.10700
H546        H  0.73751656  0.11217803  0.40329382     0.09000
H547        H  0.63743194  0.04855302  0.33711551     0.06500
H548        H  0.73933162  0.11612913  0.60839646     0.06400
C549        C  0.06766198  0.59937099  0.58074692     0.42700
N550        N  0.07978140  0.58025472  0.53001139     0.01600
C551        C  0.96024043  0.43202157  0.41087475    -0.06300
H552        H  0.95321316  0.40547694  0.57045051     0.07100
C553        C  0.08089779  0.44507685  0.55994099    -0.06600
Co554      Co  0.01274119  0.52134941  0.48668876     0.74200
N555        N  0.98066625  0.45181191  0.53053143    -0.25800
Co556      Co  0.00659284  0.44254462  0.48621058     0.74100
C557        C  0.04701075  0.41569478  0.57862407     0.42800
N558        N  0.13153077  0.53380279  0.52864766     0.01200
N559        N  0.03435484  0.43509288  0.52880975     0.01300
N560        N  0.96415150  0.48349242  0.41470929    -0.46600
H561        H  0.00589845  0.55877360  0.57039235     0.07100
N562        N  0.98254356  0.48163433  0.52961661     0.01600
N563        N  0.03356371  0.43507227  0.44253417     0.01400
C564        C  0.04500615  0.41594950  0.39119529     0.43000
N565        N  0.13337065  0.56359211  0.52997567    -0.25200
C566        C  0.03396490  0.57104758  0.41160052    -0.06200
N567        N  0.09507927  0.60413764  0.55943361    -0.46300
N568        N  0.01789742  0.41119602  0.41309086    -0.46600
C569        C  0.06827358  0.60052187  0.39334205     0.42700
N570        N  0.98259488  0.48189303  0.44363320     0.01600
N571        N  0.13298796  0.56378839  0.44200917    -0.25300
N572        N  0.04389335  0.56032102  0.53054393    -0.25800
N573        N  0.13087800  0.53384210  0.44266834     0.01300
H574        H  0.16004775  0.60990497  0.40176692     0.07100
H575        H  0.10691454  0.45670446  0.40074314     0.07200
N576        N  0.98049691  0.45195590  0.44259462    -0.25800
N577        N  0.07024363  0.45506550  0.52895443    -0.25400
N578        N  0.07985503  0.58075648  0.44379559     0.01600
C579        C  0.94828393  0.45215361  0.57966163     0.43000
C580        C  0.15404205  0.58372241  0.56139853    -0.06700
N581        N  0.06944816  0.45510826  0.44153249    -0.25400
H582        H  0.10866244  0.45647106  0.56781960     0.07200
N583        N  0.96354356  0.48283547  0.55824741    -0.46600
H584        H  0.16065267  0.60971071  0.57031776     0.07100
C585        C  0.16433602  0.56285837  0.39214171     0.42800
C586        C  0.03357387  0.57014812  0.56210937    -0.06200
Co587      Co  0.10715555  0.57301347  0.48649634     0.73800
N588        N  0.15055859  0.53252222  0.55716228    -0.46400
C589        C  0.94924946  0.45301639  0.39292354     0.43100
N590        N  0.09540705  0.60489001  0.41472261    -0.46300
Co591      Co  0.10101278  0.49426916  0.48543715     0.73900
C592        C  0.07934294  0.44526116  0.40955585    -0.06700
C593        C  0.95998020  0.43158177  0.56189281    -0.06200
N594        N  0.04397618  0.56081666  0.44306402    -0.25800
N595        N  0.01935773  0.41103266  0.55797554    -0.46500
H596        H  0.95364933  0.40604836  0.40194501     0.07100
C597        C  0.15329911  0.58382072  0.41036809    -0.06700
Cl598      Cl  0.05686435  0.50779273  0.48627444    -0.49700
C599        C  0.16577490  0.56316126  0.57882440     0.42900
H600        H  0.00636465  0.55973912  0.40306404     0.07100
N601        N  0.14935845  0.53233471  0.41368743    -0.46400
C602        C  0.22636182  0.56227851  0.31991937     0.03400
C603        C  0.21316260  0.56519584  0.61690641    -0.12800
C604        C  0.18539731  0.56955860  0.61624425     0.00900
C605        C  0.17197979  0.57287864  0.65217764    -0.11300
C606        C  0.18457480  0.56941231  0.35524795     0.03400
C607        C  0.21181394  0.56438055  0.35558602    -0.10700
H608        H  0.22327602  0.56232914  0.58912356     0.09000
H609        H  0.14921437  0.57421589  0.65179435     0.06500
H610        H  0.22054890  0.56040048  0.38373117     0.06400
C611        C  0.99903520  0.33918848  0.31725398     0.03400
C612        C  0.01478705  0.35824547  0.61505005    -0.12800
C613        C  0.04136472  0.39598120  0.61538546     0.00900
C614        C  0.05459124  0.41474211  0.31838992    -0.11300
C615        C  0.03872142  0.39592114  0.35420254     0.03400
C616        C  0.01098243  0.35827511  0.35344697    -0.10700
H617        H  0.00393520  0.34416294  0.58679459     0.09000
H618        H  0.07370931  0.44422884  0.65189708     0.06500
H619        H  0.99701260  0.34425032  0.38083095     0.06400
C620        C  0.88769631  0.45364948  0.65363705     0.03400
C621        C  0.90096409  0.45058889  0.61738828    -0.12800
C622        C  0.92842649  0.44575080  0.61692646     0.00900
C623        C  0.94163142  0.44243870  0.65299129    -0.11300
C624        C  0.92923286  0.44650014  0.35591960     0.03400
C625        C  0.90218201  0.45175493  0.35605380    -0.10700
H626        H  0.89100712  0.45350247  0.58954310     0.09000
H627        H  0.96418578  0.44077144  0.65280013     0.06500
H628        H  0.89339708  0.45587124  0.38411306     0.06400
C629        C  0.11641817  0.67648976  0.31925635     0.03400
C630        C  0.10118148  0.65722226  0.61697478    -0.12800
C631        C  0.07370385  0.61964082  0.61732823     0.00900
C632        C  0.05930471  0.60131396  0.32035304    -0.11300
C633        C  0.07476802  0.62033380  0.35623498     0.03400
C634        C  0.10315906  0.65779739  0.35548590    -0.10700
H635        H  0.11295523  0.67096229  0.58878499     0.09000
H636        H  0.03961309  0.57188696  0.65399853     0.06500
H637        H  0.11679838  0.67186601  0.38302163     0.06400
C638        C  0.64494329  0.51049224  0.41671074     0.42700
N639        N  0.62529914  0.52413741  0.46566350     0.01600
C640        C  0.47636346  0.40565162  0.58463620    -0.06300
H641        H  0.45011286  0.39941415  0.42533311     0.07100
C642        C  0.48842875  0.52641048  0.43732204    -0.06600
Co643      Co  0.56586092  0.45753506  0.50924215     0.74200
N644        N  0.49629612  0.42602659  0.46543325    -0.25800
Co645      Co  0.48698814  0.45185029  0.50948653     0.74100
C646        C  0.45948644  0.49309535  0.41740344     0.42800
N647        N  0.57862534  0.57559487  0.46652797     0.01200
N648        N  0.47940076  0.47937581  0.46590976     0.01300
N649        N  0.52759747  0.40917652  0.58106810    -0.46600
H650        H  0.60484410  0.44920072  0.42956427     0.07100
N651        N  0.52607923  0.42782327  0.46612476     0.01600
N652        N  0.47994449  0.47932848  0.55370065     0.01400
C653        C  0.46171313  0.49298626  0.60396742     0.43000
N654        N  0.60846869  0.57751042  0.46570320    -0.25200
C655        C  0.61527761  0.47730766  0.58297766    -0.06200
N656        N  0.64903690  0.53866315  0.43584373    -0.46300
N657        N  0.45685787  0.46476753  0.58411309    -0.46600
C658        C  0.64349193  0.51074235  0.60327685     0.42700
N659        N  0.52619522  0.42770514  0.55210326     0.01600
N660        N  0.60855513  0.57781610  0.55345013    -0.25300
N661        N  0.60549445  0.48824145  0.46627027    -0.25800
N662        N  0.57873139  0.57589873  0.55250373     0.01300
H663        H  0.65452831  0.60475984  0.59391360     0.07100
H664        H  0.50127842  0.55426242  0.59084376     0.07200
N665        N  0.49640033  0.42584370  0.55303952    -0.25800
N666        N  0.49919140  0.51526014  0.46676300    -0.25400
N667        N  0.62499226  0.52422861  0.55331858     0.01600
C668        C  0.49662223  0.39449748  0.41559318     0.43000
C669        C  0.62862418  0.59775233  0.43417416    -0.06700
N670        N  0.49974833  0.51523233  0.55311613    -0.25400
H671        H  0.49959028  0.55435334  0.43066267     0.07200
N672        N  0.52724062  0.40919663  0.43698550    -0.46600
H673        H  0.65461195  0.60428249  0.42557145     0.07100
C674        C  0.60780844  0.60954214  0.60302186     0.42800
C675        C  0.61607011  0.47713152  0.43649937    -0.06200
Co676      Co  0.61785612  0.55170794  0.50952145     0.73800
N677        N  0.57734742  0.59419031  0.43755078    -0.46400
C678        C  0.49711401  0.39444624  0.60264334     0.43100
N679        N  0.64817904  0.53888346  0.58362960    -0.46300
Co680      Co  0.53898408  0.54594493  0.50968296     0.73900
C681        C  0.48989802  0.52634221  0.58363319    -0.06700
C682        C  0.47607482  0.40584869  0.43385755    -0.06200
N683        N  0.60525576  0.48832486  0.55261081    -0.25800
N684        N  0.45553695  0.46489448  0.43616974    -0.46500
H685        H  0.45045287  0.39921296  0.59342156     0.07100
C686        C  0.62857489  0.59819618  0.58509309    -0.06700
Cl687      Cl  0.55243133  0.50174737  0.50940711    -0.49700
C688        C  0.60795041  0.60902545  0.41611766     0.42900
H689        H  0.60397214  0.44941380  0.59012354     0.07100
N690        N  0.57731702  0.59456271  0.58138569    -0.46400
C691        C  0.49512599  0.33179711  0.34275225     0.03400
C692        C  0.49304398  0.34608806  0.37864615    -0.12800
C693        C  0.48950165  0.37432883  0.37859288     0.00900
C694        C  0.48676037  0.38769170  0.34240587    -0.11300
C695        C  0.49042646  0.37466514  0.63974712     0.03400
C696        C  0.49487561  0.34703075  0.64006461    -0.10700
H697        H  0.49562244  0.33620511  0.40675151     0.09000
H698        H  0.48590125  0.41077644  0.34231395     0.06500
H699        H  0.49933390  0.33817052  0.61227775     0.06400
C700        C  0.40749937  0.50620536  0.34200890     0.03400
C701        C  0.41900273  0.50151286  0.37863841    -0.12800
C702        C  0.44224506  0.49121016  0.37971244     0.00900
C703        C  0.45395246  0.48543666  0.34400288    -0.11300
C704        C  0.44320496  0.49076377  0.64069911     0.03400
C705        C  0.41958486  0.50049374  0.63980816    -0.10700
H706        H  0.41093461  0.50713095  0.40621803     0.09000
H707        H  0.47363695  0.47967722  0.34473220     0.06500
H708        H  0.41167259  0.50496146  0.61138368     0.06400
C709        C  0.69889404  0.49965706  0.34155767     0.03400
C710        C  0.68643044  0.50471711  0.63931731    -0.12800
C711        C  0.66181191  0.51315436  0.64012908     0.00900
C712        C  0.65031732  0.51776339  0.34333951    -0.11300
C713        C  0.66238114  0.51259401  0.37909297     0.03400
C714        C  0.68667343  0.50358282  0.37815268    -0.10700
H715        H  0.69499214  0.50090397  0.61092327     0.09000
H716        H  0.62999189  0.52266775  0.34393673     0.06500
H717        H  0.69518046  0.49856116  0.40576750     0.06400
C718        C  0.60740375  0.67061831  0.34396593     0.03400
C719        C  0.61071612  0.65707886  0.37964861    -0.12800
C720        C  0.61484045  0.62921578  0.37926885     0.00900
C721        C  0.61781627  0.61611195  0.34293175    -0.11300
C722        C  0.61405951  0.62912842  0.64037762     0.03400
C723        C  0.60893203  0.65634803  0.64104803    -0.10700
H724        H  0.60911533  0.66749578  0.40789220     0.09000
H725        H  0.61911113  0.59329978  0.34262705     0.06500
H726        H  0.60484451  0.66554537  0.61333501     0.06400
C727        C  0.83687092  0.49500979  0.63971974    -0.22200
C728        C  0.80515774  0.47069568  0.32853359     0.09800
C729        C  0.80046946  0.44058690  0.34716911     0.10200
C730        C  0.82757073  0.43551732  0.34314034    -0.17100
C731        C  0.85965073  0.46013187  0.32154956    -0.27500
C732        C  0.86463377  0.49075386  0.63685355     0.18500
C733        C  0.77781405  0.47794834  0.33293658     0.12500
C734        C  0.76742619  0.41436955  0.37230584    -0.11900
H735        H  0.82391371  0.41233512  0.35734164     0.12800
C736        C  0.89939404  0.52054727  0.61628318    -0.22700
H737        H  0.84052068  0.51822828  0.62562007     0.08400
C738        C  0.78498921  0.50736123  0.35609124     0.04700
C739        C  0.75833709  0.51316507  0.35918899    -0.20000
C740        C  0.72445972  0.48999178  0.34018258    -0.12200
C741        C  0.71667795  0.45948735  0.65191308     0.13400
C742        C  0.74379072  0.45446827  0.64775155    -0.22700
C743        C  0.82052124  0.53235229  0.37800806    -0.05700
H744        H  0.76418934  0.53631628  0.37599422     0.15000
C745        C  0.67981510  0.43096837  0.63406589    -0.15900
H746        H  0.73810699  0.43161746  0.63043754     0.09300
H747        H  0.91003921  0.54716966  0.63026380     0.07200
H748        H  0.89379574  0.52151270  0.58432803     0.08400
H749        H  0.92126335  0.51721536  0.61843839     0.07400
H750        H  0.74245874  0.40018821  0.35374917     0.02300
H751        H  0.76532204  0.42941439  0.39665829     0.02800
H752        H  0.76886646  0.39327542  0.38602971     0.06300
H753        H  0.82104510  0.55304852  0.39586528     0.05200
H754        H  0.84344009  0.54704307  0.35655018    -0.00500
H755        H  0.82462414  0.51621491  0.39861539     0.01000
H756        H  0.68216651  0.43096456  0.60114112     0.04600
H757        H  0.65904034  0.43504380  0.64168440     0.06600
H758        H  0.66967643  0.40371300  0.64558367     0.07400
C759        C  0.36697688  0.55569031  0.64820539    -0.22200
C760        C  0.33310578  0.53387266  0.33396649     0.09800
C761        C  0.32477037  0.50444713  0.35783834     0.10200
C762        C  0.34984538  0.49649894  0.36051144    -0.17100
C763        C  0.38348405  0.51782147  0.34067356    -0.27500
C764        C  0.39271404  0.54875790  0.65220660     0.18500
C765        C  0.30690241  0.54251984  0.32900137     0.12500
C766        C  0.28967273  0.48178259  0.38095978    -0.11900
H767        H  0.34296267  0.47319737  0.37775281     0.12800
C768        C  0.42983470  0.57591438  0.63418404    -0.22700
H769        H  0.37366300  0.57876668  0.63063462     0.08400
C770        C  0.31207014  0.57268348  0.34818097     0.04700
C771        C  0.28574598  0.57881482  0.34376164    -0.20000
C772        C  0.25391805  0.55509630  0.32129221    -0.12200
C773        C  0.24856303  0.52446260  0.63591906     0.13400
C774        C  0.27560500  0.51923574  0.63919198    -0.22700
C775        C  0.34478192  0.59775756  0.37427150    -0.05700
H776        H  0.28974859  0.60202497  0.35843477     0.15000
C777        C  0.21402953  0.49546699  0.61429916    -0.15900
H778        H  0.27157854  0.49589596  0.62480743     0.09300
H779        H  0.44124245  0.60361314  0.64548561     0.07200
H780        H  0.42744566  0.57574428  0.60125535     0.08400
H781        H  0.44967354  0.57060440  0.64193063     0.07400
H782        H  0.26611641  0.46782374  0.36026304     0.02300
H783        H  0.28774993  0.49957766  0.40144479     0.02800
H784        H  0.28799356  0.46061185  0.39909833     0.06300
H785        H  0.34404075  0.61932065  0.38801594     0.05200
H786        H  0.37009139  0.61130938  0.35638722    -0.00500
H787        H  0.34556651  0.58189066  0.39860844     0.01000
H788        H  0.22012944  0.49522153  0.58234007     0.04600
H789        H  0.19230768  0.49899262  0.61656699     0.06600
H790        H  0.20283843  0.46841612  0.62736314     0.07400
C791        C  0.83452405  0.20893809  0.35163722    -0.22200
C792        C  0.85678635  0.20373577  0.66261146     0.09800
C793        C  0.84228705  0.16937650  0.64589406     0.10200
C794        C  0.80530746  0.14083314  0.65153795    -0.17100
C795        C  0.78261863  0.14632550  0.33943876    -0.27500
C796        C  0.79738603  0.18087239  0.35632603     0.18500
C797        C  0.89438446  0.23582668  0.65466739     0.12500
C798        C  0.86543448  0.16336362  0.62082852    -0.11900
H799        H  0.79369458  0.11445736  0.63815581     0.12800
C800        C  0.77390364  0.18917926  0.37685704    -0.22700
H801        H  0.84606473  0.23568935  0.36393347     0.08400
C802        C  0.90126840  0.26289269  0.62787001     0.04700
C803        C  0.93628797  0.29565979  0.62577926    -0.20000
C804        C  0.96477483  0.30170724  0.31591234    -0.12200
C805        C  0.95847054  0.27325654  0.34017332     0.13400
C806        C  0.92305174  0.24076470  0.34310834    -0.22700
C807        C  0.87154280  0.25744472  0.60195590    -0.05700
H808        H  0.94101617  0.31731502  0.60701651     0.15000
C809        C  0.98834245  0.27616551  0.36298785    -0.15900
H810        H  0.91761363  0.21945879  0.36304734     0.09300
H811        H  0.78972267  0.21841507  0.38512387     0.07200
H812        H  0.76231880  0.17320156  0.40469788     0.08400
H813        H  0.75153043  0.18263056  0.35671302     0.07400
H814        H  0.88840288  0.16865593  0.63887283     0.02300
H815        H  0.87641623  0.18212461  0.59491168     0.02800
H816        H  0.84958861  0.13499479  0.60937265     0.06300
H817        H  0.88198054  0.28104327  0.58192329     0.05200
H818        H  0.84976941  0.25400195  0.62067938    -0.00500
H819        H  0.85975683  0.23282048  0.58313546     0.01000
H820        H  0.98280692  0.27438861  0.39544095     0.04600
H821        H  0.01562423  0.30186857  0.35693682     0.06600
H822        H  0.98923182  0.25337340  0.35427521     0.07400
C823        C  0.55981812  0.23839413  0.65334849    -0.22200
C824        C  0.52947534  0.22968836  0.34167016     0.09800
C825        C  0.50833752  0.19674236  0.36307704     0.10200
C826        C  0.51774273  0.17285058  0.36182815    -0.17100
C827        C  0.54818473  0.18140870  0.34022818    -0.27500
C828        C  0.56994110  0.21503691  0.65293960     0.18500
C829        C  0.52079921  0.25588912  0.34236796     0.12500
C830        C  0.47621041  0.18708113  0.38767869    -0.11900
H831        H  0.50110265  0.14718501  0.37768353     0.12800
C832        C  0.60471699  0.22802426  0.63166599    -0.22700
H833        H  0.57623064  0.26405698  0.63742186     0.08400
C834        C  0.54067073  0.28740953  0.36636882     0.04700
C835        C  0.53148459  0.31149361  0.36600179    -0.20000
C836        C  0.50219554  0.30425606  0.34306527    -0.12200
C837        C  0.48135188  0.27173752  0.65362166     0.13400
C838        C  0.49153678  0.24845037  0.65286152    -0.22700
C839        C  0.57115093  0.29529740  0.39279890    -0.05700
H840        H  0.54746268  0.33629884  0.38351707     0.15000
C841        C  0.44743367  0.25983635  0.63113815    -0.15900
H842        H  0.47594618  0.22375992  0.63508429     0.09300
H843        H  0.62738250  0.25515301  0.64349140     0.07200
H844        H  0.60169252  0.23058706  0.59930826     0.08400
H845        H  0.61272049  0.20980624  0.63573758     0.07400
H846        H  0.45544380  0.18487945  0.36823960     0.02300
H847        H  0.48526943  0.20849902  0.41050168     0.02800
H848        H  0.46316215  0.16065709  0.40328661     0.06300
H849        H  0.58331287  0.32071767  0.41029615     0.05200
H850        H  0.59300076  0.29849451  0.37445111    -0.00500
H851        H  0.56058775  0.27248994  0.41406370     0.01000
H852        H  0.45174873  0.25898524  0.59873212     0.04600
H853        H  0.43919337  0.27777254  0.63619740     0.06600
H854        H  0.42437227  0.23212608  0.64106354     0.07400
C855        C  0.28226407  0.80648794  0.35463341    -0.22200
C856        C  0.26000264  0.81100995  0.66470175     0.09800
C857        C  0.27479165  0.84452524  0.64569744     0.10200
C858        C  0.31209438  0.87278821  0.64982561    -0.17100
C859        C  0.33481059  0.86775801  0.33841010    -0.27500
C860        C  0.31970559  0.83392763  0.35737710     0.18500
C861        C  0.22231788  0.77870684  0.65746069     0.12500
C862        C  0.25146901  0.84993903  0.62016400    -0.11900
H863        H  0.32379645  0.89863444  0.63514567     0.12800
C864        C  0.34213277  0.82455859  0.37838620    -0.22700
H865        H  0.27062534  0.78036591  0.36866866     0.08400
C866        C  0.21529122  0.75067148  0.63204286     0.04700
C867        C  0.17996721  0.71834166  0.62967169    -0.20000
C868        C  0.15135378  0.71350579  0.31837484    -0.12200
C869        C  0.15801841  0.74263365  0.34177802     0.13400
C870        C  0.19367420  0.77480852  0.34479244    -0.22700
C871        C  0.24516842  0.75461483  0.60787444    -0.05700
H872        H  0.17501711  0.69607945  0.61180241     0.15000
C873        C  0.12829665  0.74083478  0.36354510    -0.15900
H874        H  0.19927574  0.79675068  0.36382552     0.09300
H875        H  0.33614307  0.79925465  0.36527031     0.07200
H876        H  0.33487732  0.81981238  0.41048861     0.08400
H877        H  0.37184512  0.84568059  0.37558622     0.07400
H878        H  0.22931531  0.84622270  0.63842606     0.02300
H879        H  0.23934560  0.82978571  0.59545109     0.02800
H880        H  0.26748739  0.87766396  0.60698434     0.06300
H881        H  0.23460471  0.73042694  0.58869009     0.05200
H882        H  0.26612620  0.75779974  0.62786722    -0.00500
H883        H  0.25802690  0.77887851  0.58830127     0.01000
H884        H  0.13339496  0.74295418  0.39612843     0.04600
H885        H  0.10082874  0.71539806  0.35738928     0.06600
H886        H  0.12817340  0.76390095  0.35400336     0.07400
C887        C  0.56665034  0.72143402  0.36181347    -0.22200
C888        C  0.59154399  0.75406778  0.67471022     0.09800
C889        C  0.62153306  0.75913924  0.65522897     0.10200
C890        C  0.62618680  0.73163122  0.65712292    -0.17100
C891        C  0.60135070  0.69895146  0.34425166    -0.27500
C892        C  0.57076050  0.69349841  0.36294931     0.18500
C893        C  0.58517148  0.78217596  0.67334248     0.12500
C894        C  0.64806908  0.79309528  0.63151230    -0.11900
H895        H  0.64925983  0.73551248  0.64231835     0.12800
C896        C  0.54135625  0.65774421  0.38224465    -0.22700
H897        H  0.54354263  0.71762879  0.37641764     0.08400
C898        C  0.55667476  0.77715272  0.65048941     0.04700
C899        C  0.55163757  0.80443754  0.65032388    -0.20000
C900        C  0.57458060  0.83683077  0.33884184    -0.12200
C901        C  0.60395891  0.84232692  0.36064101     0.13400
C902        C  0.60831701  0.81458298  0.36158678    -0.22700
C903        C  0.53184574  0.74323642  0.62587141    -0.05700
H904        H  0.52931890  0.80027166  0.63341710     0.15000
C905        C  0.63208913  0.87743016  0.38197360    -0.15900
H906        H  0.63040957  0.81852787  0.37878206     0.09300
H907        H  0.51810566  0.65741739  0.39220448     0.07200
H908        H  0.55202740  0.65278208  0.40886247     0.08400
H909        H  0.53075837  0.63514378  0.36058035     0.07400
H910        H  0.66215004  0.81733364  0.65128419     0.02300
H911        H  0.63330093  0.79623516  0.60780719     0.02800
H912        H  0.66916164  0.79203432  0.61704941     0.06300
H913        H  0.51182803  0.74430067  0.60874977     0.05200
H914        H  0.51639725  0.71894605  0.64545136    -0.00500
H915        H  0.54819248  0.74015505  0.60434710     0.01000
H916        H  0.63051858  0.87233412  0.41450662     0.04600
H917        H  0.62901540  0.89923127  0.37665485     0.06600
H918        H  0.65966411  0.88790425  0.37127054     0.07400
C919        C  0.56636652  0.86359910  0.67223344     0.03400
C920        C  0.56355391  0.87719529  0.96944333    -0.12800
C921        C  0.55554067  0.90223403  0.96935717     0.00900
C922        C  0.55045991  0.91394582  0.00545714    -0.11300
C923        C  0.55375381  0.90101265  0.70828720     0.03400
C924        C  0.56108107  0.87546685  0.70829274    -0.10700
H925        H  0.56833001  0.86886996  0.94147747     0.09000
H926        H  0.54602874  0.93462913  0.00546771     0.06500
H927        H  0.56372157  0.86562894  0.73637907     0.06400
C928        C  0.37425657  0.89747533  0.67257348     0.03400
C929        C  0.39269968  0.91156022  0.70895746    -0.12800
C930        C  0.43068112  0.93619793  0.70957856     0.00900
C931        C  0.45026640  0.94843122  0.67389052    -0.11300
C932        C  0.43187182  0.93537299  0.97086679     0.03400
C933        C  0.39397217  0.90984087  0.97015419    -0.10700
H934        H  0.37768279  0.90169781  0.73673718     0.09000
H935        H  0.47978082  0.96697923  0.67445474     0.06500
H936        H  0.37998819  0.89866637  0.94193873     0.06400
C937        C  0.55683440  0.91944826  0.93201279     0.42700
N938        N  0.54112601  0.93655023  0.88265094     0.01600
C939        C  0.65274868  0.08770843  0.76401885    -0.06300
H940        H  0.65949334  0.11433540  0.91962065     0.07100
C941        C  0.52930969  0.06628085  0.91341717    -0.06600
Co942      Co  0.60566023  0.99782434  0.83841226     0.74200
N943        N  0.63410066  0.06703916  0.88147744    -0.25800
Co944      Co  0.60589198  0.07364859  0.83885727     0.74100
C945        C  0.56221020  0.09635305  0.93278476     0.42800
N946        N  0.48448867  0.97725723  0.88364663     0.01200
N947        N  0.57723683  0.07889679  0.88308379     0.01300
N948        N  0.65154998  0.03760844  0.76466333    -0.46600
H949        H  0.61775891  0.96207985  0.91887283     0.07100
N950        N  0.63402181  0.03823755  0.88154293     0.01600
N951        N  0.57645858  0.07852427  0.79583500     0.01400
C952        C  0.56116859  0.09574753  0.74639376     0.43000
N953        N  0.48428929  0.94837873  0.88311167    -0.25200
C954        C  0.58816049  0.94829024  0.76527034    -0.06200
N955        N  0.52778897  0.91316083  0.91271810    -0.46300
N956        N  0.59003240  0.10197385  0.76588617    -0.46600
C957        C  0.55524571  0.91833951  0.74569347     0.42700
N958        N  0.63293001  0.03759998  0.79476258     0.01600
N959        N  0.48333781  0.94825871  0.79656511    -0.25300
N960        N  0.57705852  0.95808736  0.88184831    -0.25800
N961        N  0.48344911  0.97708888  0.79683856     0.01300
H962        H  0.45767474  0.90119987  0.75798052     0.07100
H963        H  0.50010437  0.05324293  0.75912921     0.07200
N964        N  0.63308272  0.06645754  0.79500026    -0.25800
N965        N  0.54130182  0.05725380  0.88301567    -0.25400
N966        N  0.54025958  0.93618721  0.79509476     0.01600
C967        C  0.66718086  0.07003316  0.93102574     0.43000
C968        C  0.46453330  0.92686284  0.91389542    -0.06700
N969        N  0.54052849  0.05707785  0.79655624    -0.25400
H970        H  0.50113693  0.05338795  0.92093210     0.07200
N971        N  0.65330938  0.03874086  0.91117266    -0.46600
H972        H  0.45942527  0.90125535  0.92131356     0.07100
C973        C  0.45009905  0.94571256  0.74729054     0.42800
C974        C  0.58948090  0.94919752  0.91191144    -0.06200
Co975      Co  0.51157306  0.94141158  0.83930328     0.73800
N976        N  0.46584867  0.97702625  0.91389002    -0.46400
C977        C  0.66484628  0.06847517  0.74438419     0.43100
N978        N  0.52645851  0.91236809  0.76531090    -0.46300
Co979      Co  0.51183098  0.01724023  0.84003153     0.73900
C980        C  0.52832099  0.06603880  0.76631632    -0.06700
C981        C  0.65445333  0.08879690  0.91188455    -0.06200
N982        N  0.57619776  0.95762002  0.79542233    -0.25800
N983        N  0.59102959  0.10267317  0.91288398    -0.46500
H984        H  0.65786900  0.11326977  0.75630360     0.07100
C985        C  0.46287155  0.92675646  0.76601964    -0.06700
Cl986      Cl  0.55873355  0.00752429  0.83913510    -0.49700
C987        C  0.45247729  0.94596979  0.93387951     0.42900
H988        H  0.61633097  0.96094890  0.75797947     0.07100
N989        N  0.46411964  0.97685805  0.76745070    -0.46400
C990        C  0.55591208  0.15437080  0.67312280     0.03400
C991        C  0.55805062  0.14029571  0.97027725    -0.12800
C992        C  0.56385796  0.11363135  0.97019696     0.00900
C993        C  0.56652156  0.10017123  0.00627398    -0.11300
C994        C  0.56302504  0.11305654  0.70904580     0.03100
C995        C  0.55798685  0.14021110  0.70915531    -0.10700
H996        H  0.55451319  0.14957631  0.94230017     0.09000
H997        H  0.56947161  0.07844662  0.00622725     0.06500
H998        H  0.55504185  0.14986219  0.73726836     0.06400
C999        C  0.74304196  0.11710972  0.67259075     0.03400
C1000       C  0.72340774  0.10323498  0.70828110    -0.12800
C1001       C  0.68540219  0.07882528  0.70743040     0.00900
C1002       C  0.66695105  0.06690714  0.67103985    -0.11300
C1003       C  0.68653777  0.07989905  0.96875504     0.03400
C1004       C  0.72444126  0.10501905  0.96946352    -0.10700
H1005       H  0.73751608  0.11218074  0.73662685     0.09000
H1006       H  0.63743089  0.04855088  0.67044887     0.06500
H1007       H  0.73933213  0.11612880  0.94173179     0.06400
C1008       C  0.06766239  0.59937089  0.91407978     0.42700
N1009       N  0.07978193  0.58025443  0.86334468     0.01600
C1010       C  0.96024027  0.43202123  0.74420808    -0.06300
H1011       H  0.95321298  0.40547682  0.90378384     0.07100
C1012       C  0.08089764  0.44507634  0.89327469    -0.06600
Co1013     Co  0.01274158  0.52134923  0.82002199     0.74200
N1014       N  0.98066635  0.45181181  0.86386481    -0.25800
Co1015     Co  0.00659279  0.44254432  0.81954398     0.74100
C1016       C  0.04701053  0.41569465  0.91195799     0.42800
N1017       N  0.13153102  0.53380207  0.86198078     0.01200
N1018       N  0.03435487  0.43509253  0.86214322     0.01300
N1019       N  0.96415181  0.48349234  0.74804254    -0.46600
H1020       H  0.00589828  0.55877403  0.90372515     0.07100
N1021       N  0.98254385  0.48163430  0.86295003     0.01600
N1022       N  0.03356342  0.43507187  0.77586752     0.01400
C1023       C  0.04500544  0.41594967  0.72452787     0.43000
N1024       N  0.13337099  0.56359146  0.86330868    -0.25200
C1025       C  0.03396542  0.57104741  0.74493376    -0.06200
N1026       N  0.09507975  0.60413738  0.89276663    -0.46300
N1027       N  0.01789679  0.41119598  0.74642365    -0.46600
C1028       C  0.06827398  0.60052158  0.72667526     0.42700
N1029       N  0.98259516  0.48189280  0.77696647     0.01600
N1030       N  0.13298808  0.56378761  0.77534234    -0.25300
N1031       N  0.04389368  0.56032086  0.86387702    -0.25800
N1032       N  0.13087806  0.53384120  0.77600134     0.01300
H1033       H  0.16004753  0.60990408  0.73509986     0.07100
H1034       H  0.10691253  0.45670376  0.73407572     0.07200
N1035       N  0.98049693  0.45195560  0.77592788    -0.25800
N1036       N  0.07024362  0.45506480  0.86228793    -0.25400
N1037       N  0.07985551  0.58075609  0.77712867     0.01600
C1038       C  0.94828434  0.45215384  0.91299518     0.43000
C1039       C  0.15404231  0.58372184  0.89473143    -0.06700
N1040       N  0.06944757  0.45510749  0.77486577    -0.25400
H1041       H  0.10866335  0.45647105  0.90115371     0.07200
N1042       N  0.96354412  0.48283574  0.89158097    -0.46600
H1043       H  0.16065313  0.60971037  0.90365017     0.07100
C1044       C  0.16433579  0.56285740  0.72547450     0.42800
C1045       C  0.03357442  0.57014822  0.89544224    -0.06200
Co1046     Co  0.10715592  0.57301296  0.81982950     0.73800
N1047       N  0.15055868  0.53252144  0.89049562    -0.46400
C1048       C  0.94924959  0.45301623  0.72625691     0.43100
N1049       N  0.09540749  0.60488969  0.74805575    -0.46300
Co1050     Co  0.10101273  0.49426836  0.81877035     0.73900
C1051       C  0.07934251  0.44526083  0.74288855    -0.06700
C1052       C  0.95998030  0.43158178  0.89522623    -0.06200
N1053       N  0.04397664  0.56081637  0.77639718    -0.25800
N1054       N  0.01935753  0.41103246  0.89130928    -0.46500
H1055       H  0.95364867  0.40604761  0.73527825     0.07100
C1056       C  0.15329895  0.58381971  0.74370110    -0.06700
Cl1057     Cl  0.05686458  0.50779236  0.81960770    -0.49700
C1058       C  0.16577510  0.56316067  0.91215749     0.42900
H1059       H  0.00636512  0.55973875  0.73639682     0.07100
N1060       N  0.14935822  0.53233371  0.74702026    -0.46400
C1061       C  0.22636111  0.56227762  0.65325108     0.03400
C1062       C  0.21316315  0.56519628  0.95023984    -0.12800
C1063       C  0.18539733  0.56955828  0.94957757     0.00900
C1064       C  0.17197973  0.57287830  0.98551077    -0.11300
C1065       C  0.18457427  0.56941129  0.68858051     0.03400
C1066       C  0.21181324  0.56437924  0.68891806    -0.10700
H1067       H  0.22327643  0.56232983  0.92245787     0.09000
H1068       H  0.14921385  0.57421536  0.98512720     0.06500
H1069       H  0.22054837  0.56039914  0.71706279     0.06400
C1070       C  0.99903474  0.33918881  0.65058684     0.03400
C1071       C  0.01478629  0.35824531  0.94838442    -0.12800
C1072       C  0.04136418  0.39598112  0.94871955     0.00900
C1073       C  0.05459079  0.41474244  0.65172234    -0.11300
C1074       C  0.03872082  0.39592156  0.68753503     0.03400
C1075       C  0.01098166  0.35827556  0.68677966    -0.10700
H1076       H  0.00393394  0.34416230  0.92012858     0.09000
H1077       H  0.07371007  0.44422980  0.98523119     0.06500
H1078       H  0.99701148  0.34425108  0.71416338     0.06400
C1079       C  0.88769614  0.45364843  0.98697124     0.03400
C1080       C  0.90096424  0.45058848  0.95072249    -0.12800
C1081       C  0.92842703  0.44575098  0.95026013     0.00900
C1082       C  0.94163220  0.44243896  0.98632498    -0.11300
C1083       C  0.92923272  0.44649997  0.68925328     0.03400
C1084       C  0.90218221  0.45175507  0.68938747    -0.10700
H1085       H  0.89100653  0.45350220  0.92287576     0.09000
H1086       H  0.96418768  0.44077229  0.98613382     0.06500
H1087       H  0.89339732  0.45587199  0.71744713     0.06400
C1088       C  0.11641815  0.67648987  0.65259010     0.03400
C1089       C  0.10118151  0.65722208  0.95030744    -0.12800
C1090       C  0.07370411  0.61964060  0.95066097     0.00900
C1091       C  0.05930457  0.60131403  0.65368653    -0.11300
C1092       C  0.07476824  0.62033380  0.68956848     0.03400
C1093       C  0.10315912  0.65779722  0.68881957    -0.10700
H1094       H  0.11295515  0.67096206  0.92211761     0.09000
H1095       H  0.03961319  0.57188652  0.98733154     0.06500
H1096       H  0.11679792  0.67186554  0.71635523     0.06400
C1097       C  0.64494473  0.51049286  0.75004497     0.42700
N1098       N  0.62530021  0.52413833  0.79899709     0.01600
C1099       C  0.47636416  0.40565200  0.91796917    -0.06300
H1100       H  0.45011501  0.39941464  0.75866703     0.07100
C1101       C  0.48842827  0.52641003  0.77065561    -0.06600
Co1102     Co  0.56586221  0.45753605  0.84257615     0.74200
N1103       N  0.49629762  0.42602713  0.79876693    -0.25800
Co1104     Co  0.48698903  0.45185066  0.84281984     0.74100
C1105       C  0.45948552  0.49309477  0.75073780     0.42800
N1106       N  0.57862566  0.57559508  0.79986097     0.01200
N1107       N  0.47940132  0.47937576  0.79924296     0.01300
N1108       N  0.52759850  0.40917728  0.91440191    -0.46600
H1109       H  0.60484607  0.44920274  0.76289971     0.07100
N1110       N  0.52608061  0.42782396  0.79945876     0.01600
N1111       N  0.47994502  0.47932883  0.88703379     0.01400
C1112       C  0.46171282  0.49298661  0.93729961     0.43000
N1113       N  0.60846913  0.57751085  0.79903625    -0.25200
C1114       C  0.61527942  0.47730904  0.91631115    -0.06200
N1115       N  0.64903812  0.53866390  0.76917727    -0.46300
N1116       N  0.45685808  0.46476783  0.91744581    -0.46600
C1117       C  0.64349414  0.51074402  0.93660976     0.42700
N1118       N  0.52619648  0.42770615  0.88543712     0.01600
N1119       N  0.60855517  0.57781664  0.88678312    -0.25300
N1120       N  0.60549572  0.48824258  0.79960435    -0.25800
N1121       N  0.57873141  0.57589898  0.88583654     0.01300
H1122       H  0.65452726  0.60476035  0.92724664     0.07100
H1123       H  0.50127832  0.55426398  0.92417595     0.07200
N1124       N  0.49640140  0.42584429  0.88637283    -0.25800
N1125       N  0.49919166  0.51526006  0.80009610    -0.25400
N1126       N  0.62499337  0.52422978  0.88665209     0.01600
C1127       C  0.49662385  0.39449791  0.74892725     0.43000
C1128       C  0.62862471  0.59775293  0.76750728    -0.06700
N1129       N  0.49974870  0.51523281  0.88644909    -0.25400
H1130       H  0.49958904  0.55435282  0.76399641     0.07200
N1131       N  0.52724219  0.40919711  0.77031956    -0.46600
H1132       H  0.65461241  0.60428312  0.75890438     0.07100
C1133       C  0.60780781  0.60954225  0.93635490     0.42800
C1134       C  0.61607143  0.47713207  0.76983383    -0.06200
Co1135     Co  0.61785684  0.55170878  0.84285479     0.73800
N1136       N  0.57734764  0.59419054  0.77088389    -0.46400
C1137       C  0.49711462  0.39444662  0.93597649     0.43100
N1138       N  0.64818077  0.53888498  0.91696267    -0.46300
Co1139     Co  0.53898436  0.54594509  0.84301590     0.73900
C1140       C  0.48989763  0.52634239  0.91696536    -0.06700
C1141       C  0.47607610  0.40584899  0.76719126    -0.06200
N1142       N  0.60525710  0.48832616  0.88594456    -0.25800
N1143       N  0.45553681  0.46489411  0.76950362    -0.46500
H1144       H  0.45045342  0.39921306  0.92675381     0.07100
C1145       C  0.62857478  0.59819670  0.91842636    -0.06700
Cl1146     Cl  0.55243213  0.50174795  0.84274049    -0.49700
C1147       C  0.60795073  0.60902589  0.74945093     0.42900
H1148       H  0.60397421  0.44941576  0.92345713     0.07100
N1149       N  0.57731657  0.59456273  0.91471854    -0.46400
C1150       C  0.49512710  0.33179701  0.67608643     0.03400
C1151       C  0.49304590  0.34608854  0.71198031    -0.12800
C1152       C  0.48950327  0.37432898  0.71192713     0.00900
C1153       C  0.48676098  0.38769120  0.67574007    -0.11300
C1154       C  0.49042640  0.37466507  0.97308003     0.03400
C1155       C  0.49487513  0.34703041  0.97339711    -0.10700
H1156       H  0.49562492  0.33620562  0.74008652     0.09000
H1157       H  0.48590192  0.41077546  0.67564795     0.06500
H1158       H  0.49933410  0.33817114  0.94561071     0.06400
C1159       C  0.40749858  0.50620495  0.67534332     0.03400
C1160       C  0.41900177  0.50151226  0.71197280    -0.12800
C1161       C  0.44224393  0.49120958  0.71304703     0.00900
C1162       C  0.45395149  0.48543600  0.67733735    -0.11300
C1163       C  0.44320496  0.49076417  0.97403143     0.03400
C1164       C  0.41958458  0.50049392  0.97314073    -0.10700
H1165       H  0.41093345  0.50713078  0.73955360     0.09000
H1166       H  0.47363499  0.47967663  0.67806661     0.06500
H1167       H  0.41167212  0.50496153  0.94471660     0.06400
C1168       C  0.69889385  0.49965632  0.67489072     0.03400
C1169       C  0.68643199  0.50471808  0.97265114    -0.12800
C1170       C  0.66181394  0.51315605  0.97346237     0.00900
C1171       C  0.65031707  0.51776256  0.67667351    -0.11300
C1172       C  0.66238172  0.51259392  0.71242671     0.03400
C1173       C  0.68667388  0.50358256  0.71148602    -0.10700
H1174       H  0.69499343  0.50090472  0.94425826     0.09000
H1175       H  0.62999172  0.52266696  0.67727125     0.06500
H1176       H  0.69518111  0.49856125  0.73910019     0.06400
C1177       C  0.60740371  0.67061850  0.67729901     0.03400
C1178       C  0.61071618  0.65707915  0.71298162    -0.12800
C1179       C  0.61484067  0.62921620  0.71260225     0.00900
C1180       C  0.61781658  0.61611235  0.67626520    -0.11300
C1181       C  0.61405859  0.62912840  0.97371065     0.03400
C1182       C  0.60893045  0.65634753  0.97438115    -0.10700
H1183       H  0.60911506  0.66749656  0.74122663     0.09000
H1184       H  0.61911155  0.59329954  0.67596068     0.06500
H1185       H  0.60484201  0.66554436  0.94666802     0.06400
C1186       C  0.83686955  0.49500757  0.97305461    -0.22200
C1187       C  0.80515920  0.47069691  0.66186663     0.09800
C1188       C  0.80046940  0.44058671  0.68049976     0.10200
C1189       C  0.82757059  0.43551688  0.67647133    -0.17100
C1190       C  0.85965178  0.46013279  0.65488280    -0.27500
C1191       C  0.86463259  0.49075188  0.97018824     0.18500
C1192       C  0.77781540  0.47794938  0.66626903     0.12500
C1193       C  0.76742473  0.41436792  0.70563406    -0.11900
H1194       H  0.82391283  0.41233452  0.69067054     0.12800
C1195       C  0.89939233  0.52054523  0.94961698    -0.22700
H1196       H  0.84051888  0.51822552  0.95895467     0.08400
C1197       C  0.78498921  0.50736078  0.68942540     0.04700
C1198       C  0.75833668  0.51316414  0.69252314    -0.20000
C1199       C  0.72446000  0.48999148  0.67351510    -0.12200
C1200       C  0.71667727  0.45948619  0.98524863     0.13400
C1201       C  0.74378951  0.45446627  0.98108780    -0.22700
C1202       C  0.82052013  0.53235088  0.71134453    -0.05700
H1203       H  0.76418786  0.53631371  0.70932903     0.15000
C1204       C  0.67981415  0.43096746  0.96740179    -0.15900
H1205       H  0.73810502  0.43161457  0.96377455     0.09300
H1206       H  0.91003695  0.54716764  0.96359666     0.07200
H1207       H  0.89379306  0.52150951  0.91766169     0.08400
H1208       H  0.92126230  0.51721414  0.95177214     0.07400
H1209       H  0.74245819  0.40018779  0.68707573     0.02300
H1210       H  0.76531937  0.42941138  0.72998750     0.02800
H1211       H  0.76886406  0.39327302  0.71935642     0.06300
H1212       H  0.82104274  0.55304593  0.72920299     0.05200
H1213       H  0.84343989  0.54704310  0.68988819    -0.00500
H1214       H  0.82462224  0.51621256  0.73195113     0.01000
H1215       H  0.68216513  0.43096270  0.93447741     0.04600
H1216       H  0.65903993  0.43504394  0.97501977     0.06600
H1217       H  0.66967468  0.40371196  0.97892100     0.07400
C1218       C  0.36697818  0.55569202  0.98153909    -0.22200
C1219       C  0.33310472  0.53387165  0.66729947     0.09800
C1220       C  0.32476952  0.50444648  0.69117200     0.10200
C1221       C  0.34984462  0.49649853  0.69384556    -0.17100
C1222       C  0.38348319  0.51782083  0.67400760    -0.27500
C1223       C  0.39271500  0.54875918  0.98554002     0.18500
C1224       C  0.30690134  0.54251880  0.66233401     0.12500
C1225       C  0.28967182  0.48178211  0.71429324    -0.11900
H1226       H  0.34296202  0.47319682  0.71108851     0.12800
C1227       C  0.42983577  0.57591534  0.96751781    -0.22700
H1228       H  0.37366464  0.57876885  0.96396827     0.08400
C1229       C  0.31206910  0.57268258  0.68151335     0.04700
C1230       C  0.28574508  0.57881399  0.67709345    -0.20000
C1231       C  0.25391736  0.55509549  0.65462371    -0.12200
C1232       C  0.24856378  0.52446363  0.96925375     0.13400
C1233       C  0.27560591  0.51923696  0.97252639    -0.22700
C1234       C  0.34478061  0.59775661  0.70760430    -0.05700
H1235       H  0.28974760  0.60202417  0.69176629     0.15000
C1236       C  0.21402969  0.49546700  0.94763546    -0.15900
H1237       H  0.27157937  0.49589737  0.95814238     0.09300
H1238       H  0.44124400  0.60361401  0.97881987     0.07200
H1239       H  0.42744700  0.57574569  0.93458920     0.08400
H1240       H  0.44967416  0.57060459  0.97526456     0.07400
H1241       H  0.26611530  0.46782288  0.69359642     0.02300
H1242       H  0.28774908  0.49957738  0.73477757     0.02800
H1243       H  0.28799267  0.46061168  0.73243225     0.06300
H1244       H  0.34403925  0.61931986  0.72134843     0.05200
H1245       H  0.37009016  0.61130843  0.68972073    -0.00500
H1246       H  0.34556483  0.58188967  0.73194170     0.01000
H1247       H  0.22012856  0.49522026  0.91567685     0.04600
H1248       H  0.19230780  0.49899264  0.94990340     0.06600
H1249       H  0.20283906  0.46841634  0.96070068     0.07400
C1250       C  0.83452192  0.20894073  0.68496704    -0.22200
C1251       C  0.85678718  0.20373403  0.99594778     0.09800
C1252       C  0.84228750  0.16937516  0.97922860     0.10200
C1253       C  0.80530782  0.14083191  0.98487207    -0.17100
C1254       C  0.78261738  0.14632724  0.67277099    -0.27500
C1255       C  0.79738399  0.18087474  0.68965577     0.18500
C1256       C  0.89438505  0.23582520  0.98800311     0.12500
C1257       C  0.86543486  0.16336307  0.95416185    -0.11900
H1258       H  0.79369435  0.11445589  0.97148791     0.12800
C1259       C  0.77390086  0.18918197  0.71018412    -0.22700
H1260       H  0.84606185  0.23569156  0.69726161     0.08400
C1261       C  0.90126796  0.26289119  0.96120639     0.04700
C1262       C  0.93628725  0.29565884  0.95911549    -0.20000
C1263       C  0.96477401  0.30170788  0.64924490    -0.12200
C1264       C  0.95846872  0.27325724  0.67350689     0.13400
C1265       C  0.92304973  0.24076605  0.67644156    -0.22700
C1266       C  0.87154171  0.25744266  0.93529282    -0.05700
H1267       H  0.94101452  0.31731380  0.94035385     0.15000
C1268       C  0.98833995  0.27616586  0.69632258    -0.15900
H1269       H  0.91761073  0.21945963  0.69638202     0.09300
H1270       H  0.78971953  0.21841810  0.71844980     0.07200
H1271       H  0.76231551  0.17320521  0.73802490     0.08400
H1272       H  0.75152786  0.18263221  0.69003879     0.07400
H1273       H  0.88840342  0.16865487  0.97220597     0.02300
H1274       H  0.87641674  0.18212515  0.92824579     0.02800
H1275       H  0.84958911  0.13499485  0.94270498     0.06300
H1276       H  0.88197872  0.28104140  0.91526059     0.05200
H1277       H  0.84976818  0.25399893  0.95401662    -0.00500
H1278       H  0.85975594  0.23281849  0.91647168     0.01000
H1279       H  0.98280400  0.27438968  0.72877579     0.04600
H1280       H  0.01562204  0.30186849  0.69027186     0.06600
H1281       H  0.98922873  0.25337320  0.68761123     0.07400
C1282       C  0.55981802  0.23839383  0.98668135    -0.22200
C1283       C  0.52947539  0.22968767  0.67500170     0.09800
C1284       C  0.50833699  0.19674122  0.69640753     0.10200
C1285       C  0.51774256  0.17284967  0.69515894    -0.17100
C1286       C  0.54818516  0.18140838  0.67355969    -0.27500
C1287       C  0.56994113  0.21503667  0.98627288     0.18500
C1288       C  0.52079957  0.25588860  0.67570028     0.12500
C1289       C  0.47620872  0.18707899  0.72100768    -0.11900
H1290       H  0.50110241  0.14718422  0.71101336     0.12800
C1291       C  0.60471712  0.22802415  0.96499916    -0.22700
H1292       H  0.57622986  0.26405588  0.97075459     0.08400
C1293       C  0.54067161  0.28740901  0.69970119     0.04700
C1294       C  0.53148577  0.31149330  0.69933468    -0.20000
C1295       C  0.50219633  0.30425583  0.67639906    -0.12200
C1296       C  0.48135210  0.27173730  0.98695315     0.13400
C1297       C  0.49153708  0.24845009  0.98619360    -0.22700
C1298       C  0.57115189  0.29529667  0.72613094    -0.05700
H1299       H  0.54746462  0.33629884  0.71684937     0.15000
C1300       C  0.44743473  0.25983663  0.96446819    -0.15900
H1301       H  0.47594706  0.22375987  0.96841663     0.09300
H1302       H  0.62738287  0.25515361  0.97682409     0.07200
H1303       H  0.60169261  0.23058643  0.93264194     0.08400
H1304       H  0.61272119  0.20980640  0.96907160     0.07400
H1305       H  0.45544216  0.18487741  0.70156722     0.02300
H1306       H  0.48526651  0.20849597  0.74383065     0.02800
H1307       H  0.46316029  0.16065485  0.73661493     0.06300
H1308       H  0.58331394  0.32071703  0.74362850     0.05200
H1309       H  0.59300119  0.29849375  0.70778314    -0.00500
H1310       H  0.56058880  0.27248907  0.74739603     0.01000
H1311       H  0.45175088  0.25898633  0.93206220     0.04600
H1312       H  0.43919437  0.27777325  0.96952727     0.06600
H1313       H  0.42437335  0.23212691  0.97439271     0.07400
C1314       C  0.28226409  0.80648855  0.68796883    -0.22200
C1315       C  0.26000275  0.81100929  0.99803377     0.09800
C1316       C  0.27479258  0.84452376  0.97902696     0.10200
C1317       C  0.31209540  0.87278659  0.98315532    -0.17100
C1318       C  0.33481044  0.86775858  0.67174486    -0.27500
C1319       C  0.31970553  0.83392839  0.69071254     0.18500
C1320       C  0.22231809  0.77870646  0.99079272     0.12500
C1321       C  0.25147093  0.84993721  0.95349086    -0.11900
H1322       H  0.32379757  0.89863130  0.96847412     0.12800
C1323       C  0.34213279  0.82455983  0.71172252    -0.22700
H1324       H  0.27062545  0.78036645  0.70200436     0.08400
C1325       C  0.21529122  0.75067093  0.96537503     0.04700
C1326       C  0.17996717  0.71834138  0.96300405    -0.20000
C1327       C  0.15135374  0.71350588  0.65170904    -0.12200
C1328       C  0.15801794  0.74263333  0.67511239     0.13400
C1329       C  0.19367372  0.77480823  0.67812741    -0.22700
C1330       C  0.24516828  0.75461386  0.94120674    -0.05700
H1331       H  0.17501685  0.69607878  0.94513447     0.15000
C1332       C  0.12829606  0.74083439  0.69687932    -0.15900
H1333       H  0.19927463  0.79674945  0.69716048     0.09300
H1334       H  0.33614339  0.79925618  0.69860736     0.07200
H1335       H  0.33487707  0.81981394  0.74382539     0.08400
H1336       H  0.37184511  0.84568191  0.70892310     0.07400
H1337       H  0.22931691  0.84622201  0.97175111     0.02300
H1338       H  0.23934764  0.82978291  0.92877889     0.02800
H1339       H  0.26749018  0.87766189  0.94030971     0.06300
H1340       H  0.23460429  0.73042542  0.92202244     0.05200
H1341       H  0.26612627  0.75779895  0.96119943    -0.00500
H1342       H  0.25802654  0.77887698  0.92163350     0.01000
H1343       H  0.13339415  0.74295372  0.72946263     0.04600
H1344       H  0.10082796  0.71539778  0.69072339     0.06600
H1345       H  0.12817341  0.76390107  0.68733743     0.07400
C1346       C  0.56665141  0.72143517  0.69514653    -0.22200
C1347       C  0.59154170  0.75406682  0.00804464     0.09800
C1348       C  0.62153128  0.75913887  0.98856428     0.10200
C1349       C  0.62618519  0.73163083  0.99045744    -0.17100
C1350       C  0.60135110  0.69895195  0.67758438    -0.27500
C1351       C  0.57076103  0.69349925  0.69628247     0.18500
C1352       C  0.58516923  0.78217500  0.00667762     0.12500
C1353       C  0.64806837  0.79309558  0.96484905    -0.11900
H1354       H  0.64925719  0.73551226  0.97565457     0.12800
C1355       C  0.54135662  0.65774537  0.71557849    -0.22700
H1356       H  0.54354351  0.71763021  0.70975090     0.08400
C1357       C  0.55667244  0.77715184  0.98382463     0.04700
C1358       C  0.55163534  0.80443668  0.98365923    -0.20000
C1359       C  0.57458218  0.83683210  0.67217458    -0.12200
C1360       C  0.60396034  0.84232811  0.69397364     0.13400
C1361       C  0.60831851  0.81458411  0.69491936    -0.22700
C1362       C  0.53184351  0.74323555  0.95920654    -0.05700
H1363       H  0.52931682  0.80027126  0.96675138     0.15000
C1364       C  0.63209060  0.87743124  0.71530650    -0.15900
H1365       H  0.63041018  0.81852885  0.71211441     0.09300
H1366       H  0.51810611  0.65741912  0.72553868     0.07200
H1367       H  0.55202764  0.65278319  0.74219650     0.08400
H1368       H  0.53075805  0.63514454  0.69391480     0.07400
H1369       H  0.66214894  0.81733316  0.98462177     0.02300
H1370       H  0.63330134  0.79623641  0.94114383     0.02800
H1371       H  0.66916137  0.79203461  0.95038659     0.06300
H1372       H  0.51182631  0.74429991  0.94208508     0.05200
H1373       H  0.51639479  0.71894509  0.97878632    -0.00500
H1374       H  0.54819058  0.74015415  0.93768203     0.01000
H1375       H  0.63051946  0.87233477  0.74783952     0.04600
H1376       H  0.62901712  0.89923253  0.70998801     0.06600
H1377       H  0.65966558  0.88790542  0.70460369     0.07400
loop_ 
_geom_bond_atom_site_label_1 
_geom_bond_atom_site_label_2 
_geom_bond_distance 
_geom_bond_site_symmetry_2 
_ccdc_geom_bond_type 
C1            C6   1.406       .  A
C1          C920   1.406   1_554  A
C1          C441   1.487       .  S
C2            C3   1.402       .  A
C2          C460   1.406       .  A
C2            H7   1.084       .  S
C3            C4   1.400       .  A
C3           C19   1.465       .  S
C4          C464   1.400       .  A
C4            H8   1.085       .  S
C5            C6   1.402       .  A
C5          C922   1.400       .  A
C5           C39   1.465       .  S
C6            H9   1.084       .  S
C10          C11   1.403       .  A
C10         C933   1.402   1_554  A
C10         C400   1.475       .  S
C11          C12   1.398       .  A
C11          H16   1.084       .  S
C12          C13   1.398       .  A
C12          C55   1.456       .  S
C13         C932   1.397   1_554  A
C13          H17   1.085       .  S
C14          C15   1.398       .  A
C14         C472   1.397       .  A
C14          C69   1.456       .  S
C15         C469   1.402       .  A
C15          H18   1.084       .  S
C19          C56   1.453       .  S
C19          N37   1.350       .  A
N20          N37   1.326       .  A
N20          N42   1.320       .  A
N20         Co57   2.093       .  S
C21          C59   1.453       .  S
C21          H66   1.081       .  S
C21          N46   1.339       .  A
H22          C63   1.081       .  S
C23          C27   1.451       .  S
C23          H52   1.081       .  S
C23          N47   1.338       .  A
Co24         N42   2.075       .  S
Co24         N32   2.079   1_565  S
Co24         N64   2.077       .  S
Co24         N40   2.076   1_565  S
Co24        Cl68   2.450   1_565  S
N25          C63   1.338       .  A
N25          N32   1.321       .  A
N25         Co26   2.073       .  S
Co26         N29   2.091       .  S
Co26         N46   2.081       .  S
Co26         N33   2.081       .  S
Co26        Cl68   2.451       .  S
C27          C74   1.462       .  S
C27          N65   1.350       .  A
N28          N35   1.321       .  A
N28          N58   1.324       .  A
N28         Co61   2.080   1_565  S
N29          N47   1.320       .  A
N29          N65   1.326       .  A
N30          C59   1.345       .  A
N30          N40   1.323       .  A
H31          C56   1.081       .  S
N32          N53   1.323       .  A
N33          N51   1.320       .  A
N33          N38   1.325       .  A
C34          C62   1.454       .  S
C34          C76   1.460       .  S
C34          N38   1.347       .  A
N35          C50   1.339       .  A
N35         Co57   2.077       .  S
C36          C39   1.452       .  S
C36          H70   1.081       .  S
C36          N64   1.338       .  A
C39          N60   1.350       .  A
N40          N46   1.321       .  A
N41          C67   1.339       .  A
N41          N43   1.321       .  A
N41         Co57   2.082       .  S
N42          C56   1.339       .  A
N43          N71   1.324       .  A
N43         Co61   2.075   1_565  S
H44          C67   1.081       .  S
H45          C62   1.081       .  S
N47         Co61   2.072       .  S
N48          N60   1.327       .  A
N48          N64   1.320       .  A
N48         Co57   2.091       .  S
C49          C63   1.451       .  S
C49          C85   1.454       .  S
C49          N53   1.346       .  A
C50          C69   1.452       .  S
C50          H54   1.081       .  S
N51          C62   1.339       .  A
N51         Co61   2.079       .  S
C55          C67   1.454       .  S
C55          N71   1.345       .  A
Co57        Cl68   2.451   1_565  S
N58          C69   1.346       .  A
C59          C83   1.455       .  S
Co61        Cl68   2.450       .  S
C72          C77   1.404       .  A
C72         C991   1.405   1_554  A
C72         C368   1.483       .  S
C73          C74   1.401       .  A
C73         C531   1.405       .  A
C73          H78   1.084       .  S
C74          C75   1.399       .  A
C75         C535   1.399       .  A
C75          H79   1.085       .  S
C76          C77   1.399       .  A
C76         C993   1.399       .  A
C77          H80   1.084       .  S
C81          C82   1.402       .  A
C81        C1004   1.402   1_554  A
C81         C336   1.475       .  S
C82          C83   1.398       .  A
C82          H87   1.083       .  S
C83          C84   1.397       .  A
C84        C1003   1.397   1_554  A
C84          H88   1.085       .  S
C85          C86   1.396       .  A
C85         C543   1.397       .  A
C86         C540   1.402       .  A
C86          H89   1.084       .  S
C90         C127   1.455       .  S
C90         C172   1.462       .  S
C90         N108   1.347       .  A
N91         N108   1.320       .  A
N91         N113   1.320       .  A
N91        Co128   2.080       .  S
C92         C130   1.461       .  S
C92         H137   1.081       .  S
C92         N117   1.346       .  A
H93         C134   1.081       .  S
C94          C98   1.454       .  S
C94         H123   1.081       .  S
C94         N118   1.343       .  A
Co95        N113   2.082       .  S
Co95        N103   2.072   1_455  S
Co95        N135   2.090       .  S
Co95        N111   2.066   1_455  S
Co95       Cl139   2.453       .  S
N96         C134   1.347       .  A
N96         N103   1.320       .  A
N96         Co97   2.102   1_655  S
Co97        N100   2.078       .  S
Co97        N117   2.096   1_455  S
Co97        N104   2.076       .  S
Co97       Cl139   2.448       .  S
C98         C154   1.460       .  S
C98         N136   1.347       .  A
N99         N106   1.320       .  A
N99         N129   1.322       .  A
N99        Co132   2.073       .  S
N100        N118   1.320       .  A
N100        N136   1.320       .  A
N101        C130   1.344       .  A
N101        N111   1.320       .  A
H102        C127   1.081       .  S
N103        N124   1.321       .  A
N104        N122   1.320       .  A
N104        N109   1.321       .  A
C105        C133   1.458       .  S
C105        C156   1.466       .  S
C105        N109   1.346       .  A
N106        C121   1.346       .  A
N106       Co128   2.097       .  S
C107        C110   1.459       .  S
C107        H141   1.081       .  S
C107        N135   1.345       .  A
C110        C174   1.465       .  S
C110        N131   1.345       .  A
N111        N117   1.320       .  A
N112        C138   1.347       .  A
N112        N114   1.320       .  A
N112       Co128   2.102       .  S
N113        C127   1.344       .  A
N114        N142   1.320       .  A
N114       Co132   2.063       .  S
H115        C138   1.081       .  S
H116        C133   1.081       .  S
N118       Co132   2.079       .  S
N119        N131   1.320       .  A
N119        N135   1.320       .  A
N119       Co128   2.072       .  S
C120        C134   1.465       .  S
C120        C163   1.470       .  S
C120        N124   1.345       .  A
C121        C140   1.462       .  S
C121        H125   1.081       .  S
N122        C133   1.345       .  A
N122       Co132   2.090       .  S
C126        C138   1.464       .  S
C126        C147   1.467       .  S
C126        N142   1.343       .  A
Co128      Cl139   2.448       .  S
N129        C140   1.346       .  A
C130        C165   1.465       .  S
Co132      Cl139   2.453       .  S
C140        C145   1.469       .  S
C143        C148   1.402   1_556  A
C143       C1062   1.405       .  A
C143        C313   1.489       .  S
C144        C145   1.406       .  A
C144        C602   1.405       .  A
C144        H149   1.084       .  S
C145        C146   1.403       .  A
C146        C606   1.402       .  A
C146        H150   1.084       .  S
C147        C148   1.403       .  A
C147       C1064   1.402   1_554  A
C148        H151   1.084       .  S
C152        C157   1.401   1_656  A
C152       C1071   1.398   1_655  A
C152        C345   1.479       .  S
C153        C154   1.397       .  A
C153        C611   1.398   1_455  A
C153        H158   1.085       .  S
C154        C614   1.402       .  A
C155        C156   1.403   1_556  A
C155       C1072   1.402       .  A
C155       H1077   1.084       .  S
C156        C157   1.402       .  A
C157        H160   1.084   1_455  S
H159        C614   1.084       .  S
C161        C162   1.405       .  A
C161        C625   1.400       .  A
C161        C731   1.487       .  S
C162        C163   1.407       .  A
C162        H167   1.084       .  S
C163        C164   1.403       .  A
C164        C624   1.402       .  A
C164        H168   1.084       .  S
C165        C166   1.402       .  A
C165       C1082   1.402   1_554  A
C166       C1079   1.400   1_554  A
C166        H169   1.085       .  S
C170        C175   1.400   1_556  A
C170       C1089   1.398       .  A
C170        C409   1.479       .  S
C171        C172   1.398       .  A
C171        C629   1.398       .  A
C171        H176   1.085       .  S
C172        C632   1.403       .  A
C173        C174   1.403   1_556  A
C173       C1090   1.403       .  A
C173       H1095   1.084       .  S
C174        C175   1.402       .  A
C175        H178   1.085       .  S
H177        C632   1.084       .  S
C179        C216   1.452       .  S
C179        C254   1.467       .  S
C179        N197   1.351       .  A
N180        N197   1.328       .  A
N180        N202   1.320       .  A
N180       Co217   2.098       .  S
C181        C219   1.460       .  S
C181        H226   1.081       .  S
C181        N206   1.345       .  A
H182        C223   1.081       .  S
C183        C187   1.452       .  S
C183        H212   1.081       .  S
C183        N207   1.338       .  A
Co184       N202   2.074       .  S
Co184       N192   2.073       .  S
Co184       N224   2.077       .  S
Co184       N200   2.067       .  S
Co184      Cl228   2.452       .  S
N185        C223   1.345       .  A
N185        N192   1.321       .  A
N185       Co186   2.092       .  S
Co186       N189   2.097       .  S
Co186       N206   2.092       .  S
Co186       N193   2.094       .  S
Co186      Cl228   2.452       .  S
C187        C243   1.468       .  S
C187        N225   1.352       .  A
N188        N195   1.321       .  A
N188        N218   1.320       .  A
N188       Co221   2.072       .  S
N189        N207   1.320       .  A
N189        N225   1.328       .  A
N190        C219   1.344       .  A
N190        N200   1.320       .  A
H191        C216   1.081       .  S
N192        N213   1.320       .  A
N193        N211   1.321       .  A
N193        N198   1.328       .  A
C194        C222   1.452       .  S
C194        C245   1.466       .  S
C194        N198   1.350       .  A
N195        C210   1.345       .  A
N195       Co217   2.092       .  S
C196        C199   1.452       .  S
C196        H230   1.081       .  S
C196        N224   1.338       .  A
C199        C252   1.463       .  S
C199        N220   1.349       .  A
N200        N206   1.320       .  A
N201        C227   1.346       .  A
N201        N203   1.320       .  A
N201       Co217   2.098       .  S
N202        C216   1.338       .  A
N203        N231   1.320       .  A
N203       Co221   2.066       .  S
H204        C227   1.081       .  S
H205        C222   1.081       .  S
N207       Co221   2.074       .  S
N208        N220   1.327       .  A
N208        N224   1.321       .  A
N208       Co217   2.089       .  S
C209        C223   1.459       .  S
C209        C234   1.463       .  S
C209        N213   1.345       .  A
C210        C229   1.460       .  S
C210        H214   1.081       .  S
N211        C222   1.338       .  A
N211       Co221   2.077       .  S
C215        C227   1.463       .  S
C215        C263   1.466       .  S
C215        N231   1.343       .  A
Co217      Cl228   2.452       .  S
N218        C229   1.345       .  A
C219        C236   1.462       .  S
Co221      Cl228   2.452       .  S
C229        C261   1.463       .  S
C232        C233   1.401       .  A
C232       C1155   1.401   1_554  A
C232        C377   1.483       .  S
C233        C234   1.401       .  A
C233        H238   1.085       .  S
C234        C235   1.401       .  A
C235       C1154   1.401   1_554  A
C235        H239   1.084       .  S
C236        C237   1.402       .  A
C236        C694   1.401       .  A
C237        C691   1.401       .  A
C237        H240   1.084       .  S
C241        C242   1.406       .  A
C241       C1164   1.405   1_554  A
C241        C304   1.487       .  S
C242        C243   1.405       .  A
C242        H247   1.084       .  S
C243        C244   1.402       .  A
C244       C1163   1.401   1_554  A
C244        H248   1.085       .  S
C245        C246   1.401       .  A
C245        C703   1.401       .  A
C246        C700   1.405       .  A
C246        H249   1.084       .  S
C250        C255   1.406       .  A
C250       C1169   1.403   1_554  A
C250        C281   1.485       .  S
C251        C252   1.399       .  A
C251        C709   1.403       .  A
C251        H256   1.084       .  S
C252        C712   1.400       .  A
C253        C254   1.401       .  A
C253       C1170   1.400   1_554  A
C253        H257   1.085       .  S
C254        C255   1.405       .  A
C255        H258   1.084       .  S
C259        C260   1.400       .  A
C259       C1182   1.403   1_554  A
C259        C432   1.485       .  S
C260        C261   1.402       .  A
C260        H265   1.083       .  S
C261        C262   1.402       .  A
C262       C1181   1.402   1_554  A
C262        H266   1.085       .  S
C263        C264   1.405       .  A
C263        C721   1.402       .  A
C264        C718   1.403       .  A
C264        H267   1.084       .  S
C268        C273   1.405       .  A
C268        C728   1.403       .  A
C268        H278   1.084       .  S
C269        C270   1.412   1_556  A
C269       C1186   1.403       .  A
C269        C274   1.488       .  S
C270        C271   1.404       .  A
C270        C275   1.507       .  S
C271        C272   1.405   1_554  A
C271        H276   1.084       .  S
C272       C1191   1.418       .  A
C272       C1079   1.487       .  S
C273        C731   1.418       .  A
C273        C277   1.508       .  S
C274        C279   1.414   1_556  A
C274       C1201   1.402       .  A
C275        H291   1.109       .  S
C275        H292   1.110       .  S
C275        H293   1.111       .  S
C277        H288   1.111       .  S
C277        H289   1.110       .  S
C277        H290   1.106       .  S
C279        C280   1.405       .  A
C279        C284   1.507       .  S
C280        C281   1.404       .  A
C280        H285   1.084       .  S
C281       C1200   1.418   1_554  A
C282        C283   1.404       .  A
C282        C740   1.418       .  A
C282        C286   1.508       .  S
C283        C733   1.402       .  A
C283        H287   1.084       .  S
C284        H294   1.111       .  S
C284        H295   1.109       .  S
C284        H296   1.110       .  S
C286        H297   1.110       .  S
C286        H298   1.107       .  S
C286        H299   1.111       .  S
C300        C305   1.404       .  A
C300        C760   1.401       .  A
C300        H310   1.084       .  S
C301        C302   1.413       .  A
C301       C1218   1.401   1_554  A
C301        C306   1.487   1_554  S
C302        C303   1.405       .  A
C302        C307   1.507       .  S
C303        C304   1.405       .  A
C303        H308   1.084       .  S
C304       C1223   1.419   1_554  A
C305        C763   1.419       .  A
C305        C309   1.508       .  S
C306        C311   1.411   1_556  A
C306       C1233   1.402       .  A
C307        H323   1.109       .  S
C307        H324   1.110       .  S
C307        H325   1.111       .  S
C309        H320   1.111       .  S
C309        H321   1.110       .  S
C309        H322   1.107       .  S
C311        C312   1.405       .  A
C311        C316   1.507       .  S
C312        C313   1.406   1_554  A
C312        H317   1.084       .  S
C313       C1232   1.419       .  A
C314        C315   1.405       .  A
C314        C772   1.419       .  A
C314        C318   1.509       .  S
C315        C765   1.402       .  A
C315        H319   1.085       .  S
C316        H326   1.111       .  S
C316        H327   1.109       .  S
C316        H328   1.110       .  S
C318        H329   1.110       .  S
C318        H330   1.106       .  S
C318        H331   1.111       .  S
C332        C337   1.398       .  A
C332       C1251   1.400   1_554  A
C332        H342   1.085       .  S
C333        C334   1.408       .  A
C333        C791   1.400       .  A
C333        C338   1.473       .  S
C334        C335   1.402       .  A
C334        C339   1.506       .  S
C335        C795   1.405       .  A
C335        H340   1.084       .  S
C336        C337   1.415       .  A
C336       C1253   1.405   1_554  A
C337        C341   1.509       .  S
C338        C343   1.409       .  A
C338        C806   1.401       .  A
C339        H355   1.110       .  S
C339        H356   1.110       .  S
C339        H357   1.111       .  S
C341        H352   1.111       .  S
C341        H353   1.108       .  S
C341        H354   1.110       .  S
C343        C344   1.396       .  A
C343        C348   1.508       .  S
C344        C804   1.405       .  A
C344        H349   1.084       .  S
C345        C346   1.415   1_556  A
C345       C1262   1.405       .  A
C346        C347   1.402       .  A
C346        C350   1.506       .  S
C347       C1256   1.401   1_554  A
C347        H351   1.084       .  S
C348        H358   1.111       .  S
C348        H359   1.109       .  S
C348        H360   1.110       .  S
C350        H361   1.110       .  S
C350        H362   1.108   1_655  S
C350        H363   1.110       .  S
C364        C369   1.403       .  A
C364        C824   1.401       .  A
C364        H374   1.085       .  S
C365        C366   1.409       .  A
C365       C1282   1.401   1_554  A
C365        C370   1.478       .  S
C366        C367   1.401       .  A
C366        C371   1.507       .  S
C367        C368   1.406       .  A
C367        H372   1.084       .  S
C368       C1287   1.418   1_554  A
C369        C827   1.418       .  A
C369        C373   1.508       .  S
C370        C375   1.409       .  A
C370       C1297   1.400   1_554  A
C371        H387   1.110       .  S
C371        H388   1.110       .  S
C371        H389   1.111       .  S
C373        H384   1.111       .  S
C373        H385   1.110       .  S
C373        H386   1.107       .  S
C375        C376   1.401       .  A
C375        C380   1.507       .  S
C376        C377   1.406       .  A
C376        H381   1.084       .  S
C377       C1296   1.418   1_554  A
C378        C379   1.402       .  A
C378        C836   1.418       .  A
C378        C382   1.508       .  S
C379        C829   1.400       .  A
C379        H383   1.085       .  S
C380        H390   1.111       .  S
C380        H391   1.110       .  S
C380        H392   1.110       .  S
C382        H393   1.110       .  S
C382        H394   1.107       .  S
C382        H395   1.111       .  S
C396        C401   1.397       .  A
C396       C1315   1.399   1_554  A
C396        H406   1.085       .  S
C397        C398   1.408       .  A
C397        C855   1.399       .  A
C397        C402   1.473       .  S
C398        C399   1.403       .  A
C398        C403   1.506       .  S
C399        C859   1.406       .  A
C399        H404   1.084       .  S
C400        C401   1.417       .  A
C400       C1317   1.406   1_554  A
C401        C405   1.510       .  S
C402        C407   1.409       .  A
C402        C870   1.401       .  A
C403        H419   1.110       .  S
C403        H420   1.110       .  S
C403        H421   1.111       .  S
C405        H416   1.111       .  S
C405        H417   1.110       .  S
C405        H418   1.106       .  S
C407        C408   1.396       .  A
C407        C412   1.509       .  S
C408        C868   1.405       .  A
C408        H413   1.084       .  S
C409        C410   1.416   1_556  A
C409       C1326   1.405       .  A
C410        C411   1.403       .  A
C410        C414   1.506       .  S
C411       C1320   1.401   1_554  A
C411        H415   1.084       .  S
C412        H422   1.111       .  S
C412        H423   1.109       .  S
C412        H424   1.110       .  S
C414        H425   1.110       .  S
C414        H426   1.108       .  S
C414        H427   1.110       .  S
C428        C433   1.405       .  A
C428       C1347   1.402       .  A
C428        H438   1.084       .  S
C429        C430   1.412       .  A
C429        C887   1.402       .  A
C429        C434   1.486       .  S
C430        C431   1.404       .  A
C430        C435   1.507       .  S
C431        C891   1.404       .  A
C431        H436   1.084       .  S
C432        C433   1.417       .  A
C432       C1349   1.404   1_554  A
C433        C437   1.509       .  S
C434        C439   1.412       .  A
C434        C902   1.402       .  A
C435        H451   1.109       .  S
C435        H452   1.110       .  S
C435        H453   1.111       .  S
C437        H448   1.111       .  S
C437        H449   1.107       .  S
C437        H450   1.111       .  S
C439        C440   1.404       .  A
C439        C444   1.507       .  S
C440        C900   1.405       .  A
C440        H445   1.084       .  S
C441        C442   1.419       .  A
C441       C1358   1.405   1_554  A
C442        C443   1.404       .  A
C442        C446   1.508       .  S
C443       C1352   1.402       .  A
C443        H447   1.084       .  S
C444        H454   1.111       .  S
C444        H455   1.109       .  S
C444        H456   1.110       .  S
C446        H457   1.110       .  S
C446        H458   1.107       .  S
C446        H459   1.111       .  S
C460        C465   1.406       .  A
C460        C900   1.487       .  S
C461        C919   1.406       .  A
C461        C462   1.402       .  A
C461        H466   1.084       .  S
C462        C463   1.400       .  A
C462        C478   1.465       .  S
C463        C923   1.400       .  A
C463        H467   1.085       .  S
C464        C465   1.402       .  A
C464        C498   1.465       .  S
C465        H468   1.084       .  S
C469        C470   1.403       .  A
C469        C859   1.475       .  S
C470        C471   1.398       .  A
C470        H475   1.084       .  S
C471        C472   1.398       .  A
C471        C514   1.456       .  S
C472        H476   1.085       .  S
C473        C931   1.397       .  A
C473        C474   1.398       .  A
C473        C528   1.456       .  S
C474        C928   1.402       .  A
C474        H477   1.084       .  S
C478        C515   1.453       .  S
C478        N496   1.350       .  A
N479        N496   1.326       .  A
N479        N501   1.320       .  A
N479       Co516   2.093       .  S
C480        C518   1.453       .  S
C480        H525   1.081       .  S
C480        N505   1.339       .  A
H481        C522   1.081       .  S
C482        C486   1.451       .  S
C482        H511   1.081       .  S
C482        N506   1.338       .  A
Co483       N501   2.075       .  S
Co483       N491   2.079   1_565  S
Co483       N523   2.077       .  S
Co483       N499   2.076   1_565  S
Co483      Cl527   2.450   1_565  S
N484        C522   1.338       .  A
N484        N491   1.321       .  A
N484       Co485   2.073       .  S
Co485       N488   2.091       .  S
Co485       N505   2.081       .  S
Co485       N492   2.081       .  S
Co485      Cl527   2.451       .  S
C486        C533   1.462       .  S
C486        N524   1.350       .  A
N487        N494   1.321       .  A
N487        N517   1.324       .  A
N487       Co520   2.080   1_565  S
N488        N506   1.320       .  A
N488        N524   1.326       .  A
N489        C518   1.345       .  A
N489        N499   1.323       .  A
H490        C515   1.081       .  S
N491        N512   1.323       .  A
N492        N510   1.320       .  A
N492        N497   1.325       .  A
C493        C521   1.454       .  S
C493        C535   1.460       .  S
C493        N497   1.347       .  A
N494        C509   1.339       .  A
N494       Co516   2.077       .  S
C495        C498   1.452       .  S
C495        H529   1.081       .  S
C495        N523   1.338       .  A
C498        N519   1.350       .  A
N499        N505   1.321       .  A
N500        C526   1.339       .  A
N500        N502   1.321       .  A
N500       Co516   2.082       .  S
N501        C515   1.339       .  A
N502        N530   1.324       .  A
N502       Co520   2.075   1_565  S
H503        C526   1.081       .  S
H504        C521   1.081       .  S
N506       Co520   2.072       .  S
N507        N519   1.327       .  A
N507        N523   1.320       .  A
N507       Co516   2.091       .  S
C508        C522   1.451       .  S
C508        C544   1.454       .  S
C508        N512   1.346       .  A
C509        C528   1.452       .  S
C509        H513   1.081       .  S
N510        C521   1.339       .  A
N510       Co520   2.079       .  S
C514        C526   1.454       .  S
C514        N530   1.345       .  A
Co516      Cl527   2.451   1_565  S
N517        C528   1.346       .  A
C518        C542   1.455       .  S
Co520      Cl527   2.450       .  S
C531        C536   1.404       .  A
C531        C827   1.483       .  S
C532        C990   1.405       .  A
C532        C533   1.401       .  A
C532        H537   1.084       .  S
C533        C534   1.399       .  A
C534        C994   1.399       .  A
C534        H538   1.085       .  S
C535        C536   1.399       .  A
C536        H539   1.084       .  S
C540        C541   1.402       .  A
C540        C795   1.475       .  S
C541        C542   1.398       .  A
C541        H546   1.083       .  S
C542        C543   1.397       .  A
C543        H547   1.085       .  S
C544       C1002   1.397       .  A
C544        C545   1.396       .  A
C545        C999   1.402       .  A
C545        H548   1.084       .  S
C549        C586   1.455       .  S
C549        C631   1.462       .  S
C549        N567   1.347       .  A
N550        N567   1.320       .  A
N550        N572   1.320       .  A
N550       Co587   2.080       .  S
C551        C589   1.461       .  S
C551        H596   1.081       .  S
C551        N576   1.346       .  A
H552        C593   1.081       .  S
C553        C557   1.454       .  S
C553        H582   1.081       .  S
C553        N577   1.343       .  A
Co554       N572   2.082       .  S
Co554       N562   2.072   1_455  S
Co554       N594   2.090       .  S
Co554       N570   2.066   1_455  S
Co554      Cl598   2.453       .  S
N555        C593   1.347       .  A
N555        N562   1.320       .  A
N555       Co556   2.102   1_655  S
Co556       N559   2.078       .  S
Co556       N576   2.096   1_455  S
Co556       N563   2.076       .  S
Co556      Cl598   2.448       .  S
C557        C613   1.460       .  S
C557        N595   1.347       .  A
N558        N565   1.320       .  A
N558        N588   1.322       .  A
N558       Co591   2.073       .  S
N559        N577   1.320       .  A
N559        N595   1.320       .  A
N560        C589   1.344       .  A
N560        N570   1.320       .  A
H561        C586   1.081       .  S
N562        N583   1.321       .  A
N563        N581   1.320       .  A
N563        N568   1.321       .  A
C564        C592   1.458       .  S
C564        C615   1.466       .  S
C564        N568   1.346       .  A
N565        C580   1.346       .  A
N565       Co587   2.097       .  S
C566        C569   1.459       .  S
C566        H600   1.081       .  S
C566        N594   1.345       .  A
C569        C633   1.465       .  S
C569        N590   1.345       .  A
N570        N576   1.320       .  A
N571        C597   1.347       .  A
N571        N573   1.320       .  A
N571       Co587   2.102       .  S
N572        C586   1.344       .  A
N573        N601   1.320       .  A
N573       Co591   2.063       .  S
H574        C597   1.081       .  S
H575        C592   1.081       .  S
N577       Co591   2.079       .  S
N578        N590   1.320       .  A
N578        N594   1.320       .  A
N578       Co587   2.072       .  S
C579        C593   1.465       .  S
C579        C622   1.470       .  S
C579        N583   1.345       .  A
C580        C599   1.462       .  S
C580        H584   1.081       .  S
N581        C592   1.345       .  A
N581       Co591   2.090       .  S
C585        C597   1.464       .  S
C585        C606   1.467       .  S
C585        N601   1.343       .  A
Co587      Cl598   2.448       .  S
N588        C599   1.346       .  A
C589        C624   1.465       .  S
Co591      Cl598   2.453       .  S
C599        C604   1.469       .  S
C602        C607   1.402       .  A
C602        C772   1.489       .  S
C603       C1061   1.405       .  A
C603        C604   1.406       .  A
C603        H608   1.084       .  S
C604        C605   1.403       .  A
C605       C1065   1.402       .  A
C605        H609   1.084       .  S
C606        C607   1.403       .  A
C607        H610   1.084       .  S
C611        C616   1.401   1_655  A
C611        C804   1.479       .  S
C612       C1070   1.398   1_455  A
C612        C613   1.397       .  A
C612        H617   1.085       .  S
C613       C1073   1.402       .  A
C614        C615   1.403       .  A
C615        C616   1.402       .  A
C616        H619   1.084   1_455  S
H618       C1073   1.084       .  S
C620        C621   1.405       .  A
C620       C1084   1.400       .  A
C620       C1190   1.487       .  S
C621        C622   1.407       .  A
C621        H626   1.084       .  S
C622        C623   1.403       .  A
C623       C1083   1.402       .  A
C623        H627   1.084       .  S
C624        C625   1.402       .  A
C625        H628   1.085       .  S
C629        C634   1.400       .  A
C629        C868   1.479       .  S
C630       C1088   1.398       .  A
C630        C631   1.398       .  A
C630        H635   1.085       .  S
C631       C1091   1.403       .  A
C632        C633   1.403       .  A
C633        C634   1.402       .  A
C634        H637   1.085       .  S
H636       C1091   1.084       .  S
C638        C675   1.452       .  S
C638        C713   1.467       .  S
C638        N656   1.351       .  A
N639        N656   1.328       .  A
N639        N661   1.320       .  A
N639       Co676   2.098       .  S
C640        C678   1.460       .  S
C640        H685   1.081       .  S
C640        N665   1.345       .  A
H641        C682   1.081       .  S
C642        C646   1.452       .  S
C642        H671   1.081       .  S
C642        N666   1.338       .  A
Co643       N661   2.074       .  S
Co643       N651   2.073       .  S
Co643       N683   2.077       .  S
Co643       N659   2.067       .  S
Co643      Cl687   2.452       .  S
N644        C682   1.345       .  A
N644        N651   1.321       .  A
N644       Co645   2.092       .  S
Co645       N648   2.097       .  S
Co645       N665   2.092       .  S
Co645       N652   2.094       .  S
Co645      Cl687   2.452       .  S
C646        C702   1.468       .  S
C646        N684   1.352       .  A
N647        N654   1.321       .  A
N647        N677   1.320       .  A
N647       Co680   2.072       .  S
N648        N666   1.320       .  A
N648        N684   1.328       .  A
N649        C678   1.344       .  A
N649        N659   1.320       .  A
H650        C675   1.081       .  S
N651        N672   1.320       .  A
N652        N670   1.321       .  A
N652        N657   1.328       .  A
C653        C681   1.452       .  S
C653        C704   1.466       .  S
C653        N657   1.350       .  A
N654        C669   1.345       .  A
N654       Co676   2.092       .  S
C655        C658   1.452       .  S
C655        H689   1.081       .  S
C655        N683   1.338       .  A
C658        C711   1.463       .  S
C658        N679   1.349       .  A
N659        N665   1.320       .  A
N660        C686   1.346       .  A
N660        N662   1.320       .  A
N660       Co676   2.098       .  S
N661        C675   1.338       .  A
N662        N690   1.320       .  A
N662       Co680   2.066       .  S
H663        C686   1.081       .  S
H664        C681   1.081       .  S
N666       Co680   2.074       .  S
N667        N679   1.327       .  A
N667        N683   1.321       .  A
N667       Co676   2.089       .  S
C668        C682   1.459       .  S
C668        C693   1.463       .  S
C668        N672   1.345       .  A
C669        C688   1.460       .  S
C669        H673   1.081       .  S
N670        C681   1.338       .  A
N670       Co680   2.077       .  S
C674        C686   1.463       .  S
C674        C722   1.466       .  S
C674        N690   1.343       .  A
Co676      Cl687   2.452       .  S
N677        C688   1.345       .  A
C678        C695   1.462       .  S
Co680      Cl687   2.451       .  S
C688        C720   1.463       .  S
C691        C692   1.401       .  A
C691        C836   1.483       .  S
C692        C693   1.401       .  A
C692        H697   1.084       .  S
C693        C694   1.401       .  A
C694        H698   1.084       .  S
C695       C1153   1.401       .  A
C695        C696   1.402       .  A
C696       C1150   1.401       .  A
C696        H699   1.084       .  S
C700        C701   1.406       .  A
C700        C763   1.487       .  S
C701        C702   1.405       .  A
C701        H706   1.084       .  S
C702        C703   1.402       .  A
C703        H707   1.085       .  S
C704       C1162   1.401       .  A
C704        C705   1.401       .  A
C705       C1159   1.405       .  A
C705        H708   1.084       .  S
C709        C714   1.406       .  A
C709        C740   1.485       .  S
C710       C1168   1.403       .  A
C710        C711   1.399       .  A
C710        H715   1.084       .  S
C711       C1171   1.400       .  A
C712        C713   1.401       .  A
C712        H716   1.085       .  S
C713        C714   1.405       .  A
C714        H717   1.084       .  S
C718        C719   1.400       .  A
C718        C891   1.485       .  S
C719        C720   1.402       .  A
C719        H724   1.083       .  S
C720        C721   1.402       .  A
C721        H725   1.085       .  S
C722       C1180   1.402       .  A
C722        C723   1.405       .  A
C723       C1177   1.403       .  A
C723        H726   1.084       .  S
C727       C1187   1.403       .  A
C727        C732   1.405       .  A
C727        H737   1.084       .  S
C728        C729   1.412       .  A
C728        C733   1.488       .  S
C729        C730   1.404       .  A
C729        C734   1.507       .  S
C730        C731   1.405       .  A
C730        H735   1.084       .  S
C732       C1190   1.418       .  A
C732        C736   1.508       .  S
C733        C738   1.414       .  A
C734        H750   1.109       .  S
C734        H751   1.110       .  S
C734        H752   1.111       .  S
C736        H747   1.111       .  S
C736        H748   1.110       .  S
C736        H749   1.106       .  S
C738        C739   1.405       .  A
C738        C743   1.507       .  S
C739        C740   1.404       .  A
C739        H744   1.084       .  S
C741       C1199   1.418       .  A
C741        C742   1.404       .  A
C741        C745   1.508       .  S
C742       C1192   1.402       .  A
C742        H746   1.084       .  S
C743        H753   1.111       .  S
C743        H754   1.109       .  S
C743        H755   1.110       .  S
C745        H756   1.110       .  S
C745        H757   1.107       .  S
C745        H758   1.111       .  S
C759       C1219   1.401       .  A
C759        C764   1.404       .  A
C759        H769   1.084       .  S
C760        C761   1.413       .  A
C760        C765   1.487       .  S
C761        C762   1.405       .  A
C761        C766   1.507       .  S
C762        C763   1.405       .  A
C762        H767   1.084       .  S
C764       C1222   1.419       .  A
C764        C768   1.508       .  S
C765        C770   1.411       .  A
C766        H782   1.109       .  S
C766        H783   1.110       .  S
C766        H784   1.111       .  S
C768        H779   1.111       .  S
C768        H780   1.110       .  S
C768        H781   1.107       .  S
C770        C771   1.405       .  A
C770        C775   1.507       .  S
C771        C772   1.406       .  A
C771        H776   1.084       .  S
C773       C1231   1.419       .  A
C773        C774   1.405       .  A
C773        C777   1.509       .  S
C774       C1224   1.402       .  A
C774        H778   1.085       .  S
C775        H785   1.111       .  S
C775        H786   1.109       .  S
C775        H787   1.110       .  S
C777        H788   1.110       .  S
C777        H789   1.106       .  S
C777        H790   1.111       .  S
C791        C796   1.398       .  A
C791        H801   1.085       .  S
C792       C1250   1.400       .  A
C792        C793   1.408       .  A
C792        C797   1.473       .  S
C793        C794   1.402       .  A
C793        C798   1.506       .  S
C794       C1254   1.405       .  A
C794        H799   1.084       .  S
C795        C796   1.415       .  A
C796        C800   1.509       .  S
C797        C802   1.409       .  A
C797       C1265   1.401       .  A
C798        H814   1.110       .  S
C798        H815   1.110       .  S
C798        H816   1.111       .  S
C800        H811   1.111       .  S
C800        H812   1.108       .  S
C800        H813   1.110       .  S
C802        C803   1.396       .  A
C802        C807   1.508       .  S
C803       C1263   1.405       .  A
C803        H808   1.084       .  S
C804        C805   1.415       .  A
C805        C806   1.402       .  A
C805        C809   1.506       .  S
C806        H810   1.084       .  S
C807        H817   1.111       .  S
C807        H818   1.109       .  S
C807        H819   1.110       .  S
C809        H820   1.110       .  S
C809        H821   1.108   1_655  S
C809        H822   1.110       .  S
C823       C1283   1.401       .  A
C823        C828   1.403       .  A
C823        H833   1.085       .  S
C824        C825   1.409       .  A
C824        C829   1.478       .  S
C825        C826   1.401       .  A
C825        C830   1.507       .  S
C826        C827   1.406       .  A
C826        H831   1.084       .  S
C828       C1286   1.418       .  A
C828        C832   1.508       .  S
C829        C834   1.409       .  A
C830        H846   1.110       .  S
C830        H847   1.110       .  S
C830        H848   1.111       .  S
C832        H843   1.111       .  S
C832        H844   1.110       .  S
C832        H845   1.107       .  S
C834        C835   1.401       .  A
C834        C839   1.507       .  S
C835        C836   1.406       .  A
C835        H840   1.084       .  S
C837       C1295   1.418       .  A
C837        C838   1.402       .  A
C837        C841   1.508       .  S
C838       C1288   1.400       .  A
C838        H842   1.085       .  S
C839        H849   1.111       .  S
C839        H850   1.110       .  S
C839        H851   1.110       .  S
C841        H852   1.110       .  S
C841        H853   1.107       .  S
C841        H854   1.111       .  S
C855        C860   1.397       .  A
C855        H865   1.085       .  S
C856       C1314   1.399       .  A
C856        C857   1.408       .  A
C856        C861   1.473       .  S
C857        C858   1.403       .  A
C857        C862   1.506       .  S
C858       C1318   1.406       .  A
C858        H863   1.084       .  S
C859        C860   1.417       .  A
C860        C864   1.510       .  S
C861        C866   1.409       .  A
C861       C1329   1.401       .  A
C862        H878   1.110       .  S
C862        H879   1.110       .  S
C862        H880   1.111       .  S
C864        H875   1.111       .  S
C864        H876   1.110       .  S
C864        H877   1.106       .  S
C866        C867   1.396       .  A
C866        C871   1.509       .  S
C867       C1327   1.405       .  A
C867        H872   1.084       .  S
C868        C869   1.416       .  A
C869        C870   1.403       .  A
C869        C873   1.506       .  S
C870        H874   1.084       .  S
C871        H881   1.111       .  S
C871        H882   1.109       .  S
C871        H883   1.110       .  S
C873        H884   1.110       .  S
C873        H885   1.108       .  S
C873        H886   1.110       .  S
C887        C892   1.405       .  A
C887        H897   1.084       .  S
C888       C1346   1.402       .  A
C888        C889   1.412       .  A
C888        C893   1.486       .  S
C889        C890   1.404       .  A
C889        C894   1.507       .  S
C890       C1350   1.404       .  A
C890        H895   1.084       .  S
C891        C892   1.417       .  A
C892        C896   1.509       .  S
C893        C898   1.412       .  A
C893       C1361   1.402       .  A
C894        H910   1.109       .  S
C894        H911   1.110       .  S
C894        H912   1.111       .  S
C896        H907   1.111       .  S
C896        H908   1.107       .  S
C896        H909   1.111       .  S
C898        C899   1.404       .  A
C898        C903   1.507       .  S
C899       C1359   1.405       .  A
C899        H904   1.084       .  S
C900        C901   1.419       .  A
C901        C902   1.404       .  A
C901        C905   1.508       .  S
C902        H906   1.084       .  S
C903        H913   1.111       .  S
C903        H914   1.109       .  S
C903        H915   1.110       .  S
C905        H916   1.110       .  S
C905        H917   1.107       .  S
C905        H918   1.111       .  S
C919        C924   1.406       .  A
C919       C1359   1.487       .  S
C920        C921   1.402       .  A
C920        H925   1.084       .  S
C921        C922   1.400   1_556  A
C921        C937   1.465       .  S
C922        H926   1.085       .  S
C923        C924   1.402       .  A
C923        C957   1.465       .  S
C924        H927   1.084       .  S
C928        C929   1.403       .  A
C928       C1318   1.475       .  S
C929        C930   1.398       .  A
C929        H934   1.084       .  S
C930        C931   1.398       .  A
C930        C973   1.456       .  S
C931        H935   1.085       .  S
C932        C933   1.398       .  A
C932        C987   1.456       .  S
C933        H936   1.084       .  S
C937        C974   1.453       .  S
C937        N955   1.350       .  A
N938        N955   1.326       .  A
N938        N960   1.320       .  A
N938       Co975   2.093       .  S
C939        C977   1.453       .  S
C939        H984   1.081       .  S
C939        N964   1.339       .  A
H940        C981   1.081       .  S
C941        C945   1.451       .  S
C941        H970   1.081       .  S
C941        N965   1.338       .  A
Co942       N960   2.075       .  S
Co942       N950   2.079   1_565  S
Co942       N982   2.077       .  S
Co942       N958   2.076   1_565  S
Co942      Cl986   2.450   1_565  S
N943        C981   1.338       .  A
N943        N950   1.321       .  A
N943       Co944   2.073       .  S
Co944       N947   2.091       .  S
Co944       N964   2.081       .  S
Co944       N951   2.081       .  S
Co944      Cl986   2.451       .  S
C945        C992   1.462       .  S
C945        N983   1.350       .  A
N946        N953   1.321       .  A
N946        N976   1.324       .  A
N946       Co979   2.080   1_565  S
N947        N965   1.320       .  A
N947        N983   1.326       .  A
N948        C977   1.345       .  A
N948        N958   1.323       .  A
H949        C974   1.081       .  S
N950        N971   1.323       .  A
N951        N969   1.320       .  A
N951        N956   1.325       .  A
C952        C980   1.454       .  S
C952        C994   1.460       .  S
C952        N956   1.347       .  A
N953        C968   1.339       .  A
N953       Co975   2.077       .  S
C954        C957   1.452       .  S
C954        H988   1.081       .  S
C954        N982   1.338       .  A
C957        N978   1.350       .  A
N958        N964   1.321       .  A
N959        C985   1.339       .  A
N959        N961   1.321       .  A
N959       Co975   2.082       .  S
N960        C974   1.339       .  A
N961        N989   1.324       .  A
N961       Co979   2.075   1_565  S
H962        C985   1.081       .  S
H963        C980   1.081       .  S
N965       Co979   2.072       .  S
N966        N978   1.327       .  A
N966        N982   1.320       .  A
N966       Co975   2.091       .  S
C967        C981   1.451       .  S
C967       C1003   1.454       .  S
C967        N971   1.346       .  A
C968        C987   1.452       .  S
C968        H972   1.081       .  S
N969        C980   1.339       .  A
N969       Co979   2.079       .  S
C973        C985   1.454       .  S
C973        N989   1.345       .  A
Co975      Cl986   2.451   1_565  S
N976        C987   1.346       .  A
C977       C1001   1.455       .  S
Co979      Cl986   2.450       .  S
C990        C995   1.404       .  A
C990       C1286   1.483       .  S
C991        C992   1.401       .  A
C991        H996   1.084       .  S
C992        C993   1.399   1_556  A
C993        H997   1.085       .  S
C994        C995   1.399       .  A
C995        H998   1.084       .  S
C999       C1000   1.402       .  A
C999       C1254   1.475       .  S
C1000      C1001   1.398       .  A
C1000      H1005   1.083       .  S
C1001      C1002   1.397       .  A
C1002      H1006   1.085       .  S
C1003      C1004   1.396       .  A
C1004      H1007   1.084       .  S
C1008      C1045   1.455       .  S
C1008      C1090   1.462       .  S
C1008      N1026   1.347       .  A
N1009      N1026   1.320       .  A
N1009      N1031   1.320       .  A
N1009     Co1046   2.080       .  S
C1010      C1048   1.461       .  S
C1010      H1055   1.081       .  S
C1010      N1035   1.346       .  A
H1011      C1052   1.081       .  S
C1012      C1016   1.454       .  S
C1012      H1041   1.081       .  S
C1012      N1036   1.343       .  A
Co1013     N1031   2.082       .  S
Co1013     N1021   2.072   1_455  S
Co1013     N1053   2.090       .  S
Co1013     N1029   2.066   1_455  S
Co1013    Cl1057   2.453       .  S
N1014      C1052   1.347       .  A
N1014      N1021   1.320       .  A
N1014     Co1015   2.102   1_655  S
Co1015     N1018   2.078       .  S
Co1015     N1035   2.096   1_455  S
Co1015     N1022   2.076       .  S
Co1015    Cl1057   2.448       .  S
C1016      C1072   1.460       .  S
C1016      N1054   1.347       .  A
N1017      N1024   1.320       .  A
N1017      N1047   1.322       .  A
N1017     Co1050   2.073       .  S
N1018      N1036   1.320       .  A
N1018      N1054   1.320       .  A
N1019      C1048   1.344       .  A
N1019      N1029   1.320       .  A
H1020      C1045   1.081       .  S
N1021      N1042   1.321       .  A
N1022      N1040   1.320       .  A
N1022      N1027   1.321       .  A
C1023      C1051   1.458       .  S
C1023      C1074   1.466       .  S
C1023      N1027   1.346       .  A
N1024      C1039   1.346       .  A
N1024     Co1046   2.097       .  S
C1025      C1028   1.459       .  S
C1025      H1059   1.081       .  S
C1025      N1053   1.345       .  A
C1028      C1092   1.465       .  S
C1028      N1049   1.345       .  A
N1029      N1035   1.320       .  A
N1030      C1056   1.347       .  A
N1030      N1032   1.320       .  A
N1030     Co1046   2.102       .  S
N1031      C1045   1.344       .  A
N1032      N1060   1.320       .  A
N1032     Co1050   2.063       .  S
H1033      C1056   1.081       .  S
H1034      C1051   1.081       .  S
N1036     Co1050   2.079       .  S
N1037      N1049   1.320       .  A
N1037      N1053   1.320       .  A
N1037     Co1046   2.072       .  S
C1038      C1052   1.465       .  S
C1038      C1081   1.470       .  S
C1038      N1042   1.345       .  A
C1039      C1058   1.462       .  S
C1039      H1043   1.081       .  S
N1040      C1051   1.345       .  A
N1040     Co1050   2.090       .  S
C1044      C1056   1.464       .  S
C1044      C1065   1.467       .  S
C1044      N1060   1.343       .  A
Co1046    Cl1057   2.448       .  S
N1047      C1058   1.346       .  A
C1048      C1083   1.465       .  S
Co1050    Cl1057   2.453       .  S
C1058      C1063   1.469       .  S
C1061      C1066   1.402       .  A
C1061      C1231   1.489       .  S
C1062      C1063   1.406       .  A
C1062      H1067   1.084       .  S
C1063      C1064   1.403       .  A
C1064      H1068   1.084       .  S
C1065      C1066   1.403       .  A
C1066      H1069   1.084       .  S
C1070      C1075   1.401   1_655  A
C1070      C1263   1.479       .  S
C1071      C1072   1.397       .  A
C1071      H1076   1.085       .  S
C1073      C1074   1.403       .  A
C1074      C1075   1.402       .  A
C1075      H1078   1.084   1_455  S
C1079      C1080   1.405       .  A
C1080      C1081   1.407       .  A
C1080      H1085   1.084       .  S
C1081      C1082   1.403       .  A
C1082      H1086   1.084       .  S
C1083      C1084   1.402       .  A
C1084      H1087   1.085       .  S
C1088      C1093   1.400       .  A
C1088      C1327   1.479       .  S
C1089      C1090   1.398       .  A
C1089      H1094   1.085       .  S
C1091      C1092   1.403       .  A
C1092      C1093   1.402       .  A
C1093      H1096   1.085       .  S
C1097      C1134   1.452       .  S
C1097      C1172   1.467       .  S
C1097      N1115   1.351       .  A
N1098      N1115   1.328       .  A
N1098      N1120   1.320       .  A
N1098     Co1135   2.098       .  S
C1099      C1137   1.460       .  S
C1099      H1144   1.081       .  S
C1099      N1124   1.345       .  A
H1100      C1141   1.081       .  S
C1101      C1105   1.452       .  S
C1101      H1130   1.081       .  S
C1101      N1125   1.338       .  A
Co1102     N1120   2.074       .  S
Co1102     N1110   2.073       .  S
Co1102     N1142   2.077       .  S
Co1102     N1118   2.067       .  S
Co1102    Cl1146   2.452       .  S
N1103      C1141   1.345       .  A
N1103      N1110   1.321       .  A
N1103     Co1104   2.092       .  S
Co1104     N1107   2.097       .  S
Co1104     N1124   2.092       .  S
Co1104     N1111   2.094       .  S
Co1104    Cl1146   2.452       .  S
C1105      C1161   1.468       .  S
C1105      N1143   1.352       .  A
N1106      N1113   1.321       .  A
N1106      N1136   1.320       .  A
N1106     Co1139   2.072       .  S
N1107      N1125   1.320       .  A
N1107      N1143   1.328       .  A
N1108      C1137   1.344       .  A
N1108      N1118   1.320       .  A
H1109      C1134   1.081       .  S
N1110      N1131   1.320       .  A
N1111      N1129   1.321       .  A
N1111      N1116   1.328       .  A
C1112      C1140   1.452       .  S
C1112      C1163   1.466       .  S
C1112      N1116   1.350       .  A
N1113      C1128   1.345       .  A
N1113     Co1135   2.092       .  S
C1114      C1117   1.452       .  S
C1114      H1148   1.081       .  S
C1114      N1142   1.338       .  A
C1117      C1170   1.463       .  S
C1117      N1138   1.349       .  A
N1118      N1124   1.320       .  A
N1119      C1145   1.346       .  A
N1119      N1121   1.320       .  A
N1119     Co1135   2.098       .  S
N1120      C1134   1.338       .  A
N1121      N1149   1.320       .  A
N1121     Co1139   2.066       .  S
H1122      C1145   1.081       .  S
H1123      C1140   1.081       .  S
N1125     Co1139   2.074       .  S
N1126      N1138   1.327       .  A
N1126      N1142   1.321       .  A
N1126     Co1135   2.089       .  S
C1127      C1141   1.459       .  S
C1127      C1152   1.463       .  S
C1127      N1131   1.345       .  A
C1128      C1147   1.460       .  S
C1128      H1132   1.081       .  S
N1129      C1140   1.338       .  A
N1129     Co1139   2.077       .  S
C1133      C1145   1.463       .  S
C1133      C1181   1.466       .  S
C1133      N1149   1.343       .  A
Co1135    Cl1146   2.452       .  S
N1136      C1147   1.345       .  A
C1137      C1154   1.462       .  S
Co1139    Cl1146   2.451       .  S
C1147      C1179   1.463       .  S
C1150      C1151   1.401       .  A
C1150      C1295   1.483       .  S
C1151      C1152   1.401       .  A
C1151      H1156   1.085       .  S
C1152      C1153   1.401       .  A
C1153      H1157   1.084       .  S
C1154      C1155   1.402       .  A
C1155      H1158   1.084       .  S
C1159      C1160   1.406       .  A
C1159      C1222   1.487       .  S
C1160      C1161   1.405       .  A
C1160      H1165   1.084       .  S
C1161      C1162   1.402       .  A
C1162      H1166   1.085       .  S
C1163      C1164   1.401       .  A
C1164      H1167   1.084       .  S
C1168      C1173   1.406       .  A
C1168      C1199   1.485       .  S
C1169      C1170   1.399       .  A
C1169      H1174   1.084       .  S
C1171      C1172   1.401       .  A
C1171      H1175   1.085       .  S
C1172      C1173   1.405       .  A
C1173      H1176   1.084       .  S
C1177      C1178   1.400       .  A
C1177      C1350   1.485       .  S
C1178      C1179   1.402       .  A
C1178      H1183   1.083       .  S
C1179      C1180   1.402       .  A
C1180      H1184   1.085       .  S
C1181      C1182   1.405       .  A
C1182      H1185   1.084       .  S
C1186      C1191   1.405       .  A
C1186      H1196   1.084       .  S
C1187      C1188   1.412       .  A
C1187      C1192   1.488       .  S
C1188      C1189   1.404       .  A
C1188      C1193   1.507       .  S
C1189      C1190   1.405       .  A
C1189      H1194   1.084       .  S
C1191      C1195   1.508       .  S
C1192      C1197   1.414       .  A
C1193      H1209   1.109       .  S
C1193      H1210   1.110       .  S
C1193      H1211   1.111       .  S
C1195      H1206   1.111       .  S
C1195      H1207   1.110       .  S
C1195      H1208   1.106       .  S
C1197      C1198   1.405       .  A
C1197      C1202   1.507       .  S
C1198      C1199   1.404       .  A
C1198      H1203   1.084       .  S
C1200      C1201   1.404       .  A
C1200      C1204   1.508       .  S
C1201      H1205   1.084       .  S
C1202      H1212   1.111       .  S
C1202      H1213   1.109       .  S
C1202      H1214   1.110       .  S
C1204      H1215   1.110       .  S
C1204      H1216   1.107       .  S
C1204      H1217   1.111       .  S
C1218      C1223   1.404       .  A
C1218      H1228   1.084       .  S
C1219      C1220   1.413       .  A
C1219      C1224   1.487       .  S
C1220      C1221   1.405       .  A
C1220      C1225   1.507       .  S
C1221      C1222   1.405       .  A
C1221      H1226   1.084       .  S
C1223      C1227   1.508       .  S
C1224      C1229   1.411       .  A
C1225      H1241   1.109       .  S
C1225      H1242   1.110       .  S
C1225      H1243   1.111       .  S
C1227      H1238   1.111       .  S
C1227      H1239   1.110       .  S
C1227      H1240   1.107       .  S
C1229      C1230   1.405       .  A
C1229      C1234   1.507       .  S
C1230      C1231   1.406       .  A
C1230      H1235   1.084       .  S
C1232      C1233   1.405       .  A
C1232      C1236   1.509       .  S
C1233      H1237   1.084       .  S
C1234      H1244   1.111       .  S
C1234      H1245   1.109       .  S
C1234      H1246   1.110       .  S
C1236      H1247   1.110       .  S
C1236      H1248   1.106       .  S
C1236      H1249   1.111       .  S
C1250      C1255   1.398       .  A
C1250      H1260   1.085       .  S
C1251      C1252   1.408       .  A
C1251      C1256   1.473       .  S
C1252      C1253   1.402       .  A
C1252      C1257   1.506       .  S
C1253      H1258   1.084       .  S
C1254      C1255   1.415       .  A
C1255      C1259   1.509       .  S
C1256      C1261   1.409       .  A
C1257      H1273   1.110       .  S
C1257      H1274   1.110       .  S
C1257      H1275   1.111       .  S
C1259      H1270   1.111       .  S
C1259      H1271   1.108       .  S
C1259      H1272   1.110       .  S
C1261      C1262   1.396       .  A
C1261      C1266   1.508       .  S
C1262      H1267   1.084       .  S
C1263      C1264   1.415       .  A
C1264      C1265   1.402       .  A
C1264      C1268   1.506       .  S
C1265      H1269   1.084       .  S
C1266      H1276   1.111       .  S
C1266      H1277   1.109       .  S
C1266      H1278   1.110       .  S
C1268      H1279   1.110       .  S
C1268      H1280   1.108   1_655  S
C1268      H1281   1.110       .  S
C1282      C1287   1.403       .  A
C1282      H1292   1.085       .  S
C1283      C1284   1.409       .  A
C1283      C1288   1.478       .  S
C1284      C1285   1.401       .  A
C1284      C1289   1.507       .  S
C1285      C1286   1.406       .  A
C1285      H1290   1.084       .  S
C1287      C1291   1.508       .  S
C1288      C1293   1.409       .  A
C1289      H1305   1.110       .  S
C1289      H1306   1.110       .  S
C1289      H1307   1.111       .  S
C1291      H1302   1.111       .  S
C1291      H1303   1.110       .  S
C1291      H1304   1.107       .  S
C1293      C1294   1.401       .  A
C1293      C1298   1.507       .  S
C1294      C1295   1.406       .  A
C1294      H1299   1.084       .  S
C1296      C1297   1.402       .  A
C1296      C1300   1.508       .  S
C1297      H1301   1.085       .  S
C1298      H1308   1.111       .  S
C1298      H1309   1.110       .  S
C1298      H1310   1.110       .  S
C1300      H1311   1.110       .  S
C1300      H1312   1.107       .  S
C1300      H1313   1.111       .  S
C1314      C1319   1.397       .  A
C1314      H1324   1.085       .  S
C1315      C1316   1.408       .  A
C1315      C1320   1.473       .  S
C1316      C1317   1.403       .  A
C1316      C1321   1.506       .  S
C1317      H1322   1.084       .  S
C1318      C1319   1.417       .  A
C1319      C1323   1.510       .  S
C1320      C1325   1.409       .  A
C1321      H1337   1.110       .  S
C1321      H1338   1.110       .  S
C1321      H1339   1.111       .  S
C1323      H1334   1.111       .  S
C1323      H1335   1.110       .  S
C1323      H1336   1.106       .  S
C1325      C1326   1.396       .  A
C1325      C1330   1.509       .  S
C1326      H1331   1.084       .  S
C1327      C1328   1.416       .  A
C1328      C1329   1.403       .  A
C1328      C1332   1.506       .  S
C1329      H1333   1.084       .  S
C1330      H1340   1.111       .  S
C1330      H1341   1.109       .  S
C1330      H1342   1.110       .  S
C1332      H1343   1.110       .  S
C1332      H1344   1.108       .  S
C1332      H1345   1.110       .  S
C1346      C1351   1.405       .  A
C1346      H1356   1.084       .  S
C1347      C1348   1.412   1_554  A
C1347      C1352   1.486       .  S
C1348      C1349   1.404       .  A
C1348      C1353   1.507       .  S
C1349      H1354   1.084       .  S
C1350      C1351   1.417       .  A
C1351      C1355   1.509       .  S
C1352      C1357   1.412   1_554  A
C1353      H1369   1.109       .  S
C1353      H1370   1.110       .  S
C1353      H1371   1.111       .  S
C1355      H1366   1.111       .  S
C1355      H1367   1.107       .  S
C1355      H1368   1.111       .  S
C1357      C1358   1.404       .  A
C1357      C1362   1.507       .  S
C1358      H1363   1.084       .  S
C1359      C1360   1.419       .  A
C1360      C1361   1.404       .  A
C1360      C1364   1.508       .  S
C1361      H1365   1.084       .  S
C1362      H1372   1.111       .  S
C1362      H1373   1.109       .  S
C1362      H1374   1.110       .  S
C1364      H1375   1.110       .  S
C1364      H1376   1.107       .  S
C1364      H1377   1.111       .  S
