geometry optimzed in LAMMPS
_audit_creation_date              2020-11-30 
_audit_creation_method            'lammps2cif' 
_symmetry_space_group_name_H-M    'P1' 
_symmetry_Int_Tables_number       1 
_symmetry_cell_setting            triclinic 
loop_ 
_symmetry_equiv_pos_as_xyz 
  x,y,z 
_cell_length_a                    25.10428854509594 
_cell_length_b                    24.991076296039967 
_cell_length_c                    43.50203266167669 
_cell_angle_alpha                 89.85684851578645 
_cell_angle_beta                  89.1013549088597 
_cell_angle_gamma                 90.18056316296193 
loop_ 
_atom_site_label 
_atom_site_type_symbol 
_atom_site_fract_x 
_atom_site_fract_y 
_atom_site_fract_z 
_atom_site_charge 
C1          C  0.73895080  0.50160098  0.26765650     0.03670
C2          C  0.71155268  0.45152319  0.26585849    -0.12480
C3          C  0.65870190  0.45154594  0.25571779     0.01170
C4          C  0.64011545  0.49967891  0.24434834    -0.11010
C5          C  0.65666259  0.54802793  0.25649999     0.03660
C6          C  0.70902061  0.54998705  0.26717133    -0.10430
H7          H  0.73153385  0.41414805  0.27059908     0.09250
H8          H  0.60575220  0.49914354  0.23061009     0.06780
H9          H  0.72695705  0.58787073  0.27327237     0.06630
C10         C  0.57273030  0.66862242  0.23653962     0.03670
C11         C  0.61954368  0.64160729  0.24597191    -0.12480
C12         C  0.61450353  0.59028839  0.25847443     0.01170
C13         C  0.56249769  0.57211393  0.26482918    -0.11010
C14         C  0.52080367  0.58830577  0.24612765     0.03660
C15         C  0.52567930  0.63823536  0.23188603    -0.10430
H16         H  0.65845778  0.66023011  0.24459889     0.09250
H17         H  0.55696184  0.53740353  0.27885123     0.06780
H18         H  0.49251443  0.65459882  0.21934931     0.06630
C19         C  0.57715031  0.33172341  0.23182291     0.03670
C20         C  0.62336482  0.35797395  0.24310614    -0.12480
C21         C  0.61774865  0.40759436  0.25752046     0.01170
C22         C  0.56547882  0.42371661  0.26493644    -0.11010
C23         C  0.52360992  0.40902812  0.24587773     0.03660
C24         C  0.52948465  0.36182127  0.22912803    -0.10430
H25         H  0.66244955  0.34017861  0.24191187     0.09250
H26         H  0.55982123  0.45628574  0.28049237     0.06780
H27         H  0.49644756  0.34704698  0.21582195     0.06630
C28         C  0.40117306  0.49730520  0.25404038     0.03670
C29         C  0.42854372  0.54672139  0.25081070    -0.12480
C30         C  0.48029442  0.54696678  0.23835144     0.01170
C31         C  0.49990521  0.49860675  0.22667872    -0.11010
C32         C  0.48226478  0.45020170  0.23950888     0.03660
C33         C  0.43084242  0.44912925  0.25249625    -0.10430
H34         H  0.40971869  0.58412452  0.25709792     0.09250
H35         H  0.53404701  0.49904084  0.21155860     0.06780
H36         H  0.41348427  0.41158512  0.26016453     0.06630
O37         O  0.11379833  0.58329414  0.00664305    -0.71240
O38         O  0.11147950  0.43098842  0.50165309    -0.71460
O39         O  0.11446526  0.51095094  0.46054270    -0.71320
O40         O  0.11071171  0.50249836  0.04786218    -0.71330
O41         O  0.02473613  0.50953474  0.04751405    -0.71290
O42         O  0.02815371  0.50664278  0.46034647    -0.71310
O43         O  0.02528096  0.43195380  0.00467864    -0.71250
O44         O  0.02782496  0.58471742  0.50294299    -0.71430
V45         V  0.11102322  0.50708636  0.00419247     1.35240
V46         V  0.02813407  0.50827490  0.00388477     1.35170
C47         C  0.07122995  0.61025112  0.00516939     0.78000
C48         C  0.06794130  0.40526122  0.00255362     0.78050
C49         C  0.07185177  0.50794689  0.44551319     0.77920
C50         C  0.06699055  0.50509841  0.06269262     0.77890
O51         O  0.99340414  0.54295030  0.25621544    -0.71240
O52         O  0.14506731  0.54571181  0.25298012    -0.71460
O53         O  0.06719307  0.54387306  0.21055378    -0.71320
O54         O  0.07083379  0.54616313  0.29754501    -0.71330
O55         O  0.06886249  0.45920377  0.29869723    -0.71290
O56         O  0.07270981  0.45708832  0.21101767    -0.71310
O57         O  0.14583683  0.45894582  0.25557626    -0.71250
O58         O  0.99507213  0.45608931  0.25492703    -0.71430
V59         V  0.06920397  0.54299811  0.25416944     1.35240
V60         V  0.07055541  0.45948663  0.25491165     1.35170
C61         C  0.96862492  0.49878408  0.25733280     0.78000
C62         C  0.17114337  0.50264849  0.25517957     0.78050
C63         C  0.07002543  0.50037827  0.19592008     0.77920
C64         C  0.06908913  0.50333538  0.31289744     0.77890
O65         O  0.65186677  0.94862957  0.99255206    -0.71240
O66         O  0.50052646  0.94587109  0.49571022    -0.71460
O67         O  0.57459983  0.94683263  0.45049988    -0.71320
O68         O  0.57801994  0.94861560  0.03810941    -0.71330
O69         O  0.57297416  0.03513343  0.03713261    -0.71290
O70         O  0.57707087  0.03343307  0.45021094    -0.71310
O71         O  0.49934169  0.03240959  0.99327791    -0.71250
O72         O  0.65042676  0.03520993  0.49409458    -0.71430
V73         V  0.57617695  0.94906236  0.99425778     1.35240
V74         V  0.57492169  0.03233828  0.99368662     1.35170
C75         C  0.67715788  0.99246281  0.99291499     0.78000
C76         C  0.47389839  0.98861714  0.99466039     0.78050
C77         C  0.57648082  0.99009053  0.43532138     0.77920
C78         C  0.57629815  0.99254777  0.05260478     0.77890
O79         O  0.52938233  0.07497300  0.24305574    -0.71240
O80         O  0.53159282  0.92394522  0.24460639    -0.71460
O81         O  0.53070769  0.00017552  0.28797865    -0.71320
O82         O  0.52984092  0.99790209  0.20068983    -0.71330
O83         O  0.61647424  0.99963198  0.19960153    -0.71290
O84         O  0.61733394  0.00167099  0.28697317    -0.71310
O85         O  0.61805233  0.92528898  0.24356724    -0.71250
O86         O  0.61578582  0.07650323  0.24224935    -0.71430
V87         V  0.53206480  0.99939251  0.24423727     1.35240
V88         V  0.61524640  0.00084382  0.24325836     1.35170
C89         C  0.57219080  0.10156553  0.24147294     0.78000
C90         C  0.57516039  0.89890993  0.24287067     0.78050
C91         C  0.57413597  0.00068514  0.30228774     0.77920
C92         C  0.57299863  0.99745407  0.18540653     0.77890
C93         C  0.07428928  0.84261409  0.02312123     0.03670
C94         C  0.12197949  0.87316590  0.02538966    -0.12480
C95         C  0.12089687  0.92483547  0.03847523     0.01170
C96         C  0.07175899  0.94125509  0.05126936    -0.11010
C97         C  0.02417718  0.92302084  0.03806819     0.03660
C98         C  0.02506601  0.87040473  0.02634626    -0.10430
H99         H  0.15907319  0.85697969  0.01656227     0.09250
H100        H  0.07041944  0.97566104  0.06615445     0.06780
H101        H  0.98819823  0.85199781  0.01934745     0.06630
C102        C  0.24209746  0.99560383  0.00143246     0.03670
C103        C  0.21391654  0.95563795  0.01863106    -0.12480
C104        C  0.16272779  0.96697719  0.03074152     0.01170
C105        C  0.14660178  0.02062919  0.02874630    -0.11010
C106        C  0.16426221  0.05257624  0.00430355     0.03660
C107        C  0.21286938  0.03974226  0.99019918    -0.10430
H108        H  0.23195427  0.91742977  0.02361302     0.09250
H109        H  0.11434997  0.03568194  0.04232249     0.06780
H110        H  0.22904702  0.06531102  0.97219035     0.06630
C111        C  0.07302764  0.17153621  0.99277429     0.03670
C112        C  0.12155253  0.14311641  0.99604227    -0.12480
C113        C  0.12362360  0.08788717  0.99036514     0.01170
C114        C  0.07731022  0.06190761  0.98082958    -0.11010
C115        C  0.02746063  0.08551554  0.98607223     0.03660
C116        C  0.02522315  0.14126944  0.98989746    -0.10430
H117        H  0.15685268  0.16332966  0.00413418     0.09250
H118        H  0.07879854  0.01883770  0.97761585     0.06780
H119        H  0.98658788  0.16001540  0.99194661     0.06630
C120        C  0.90812455  0.99151149  0.99638987     0.03670
C121        C  0.93406190  0.95249771  0.01480987    -0.12480
C122        C  0.98411219  0.96437617  0.02749472     0.01170
C123        C  0.00175070  0.01741975  0.02401262    -0.11010
C124        C  0.98602107  0.04875510  0.99924346     0.03660
C125        C  0.93760550  0.03651238  0.98565435    -0.10430
H126        H  0.91471453  0.91488791  0.02034841     0.09250
H127        H  0.03385925  0.03259202  0.03699991     0.06780
H128        H  0.92180731  0.06276710  0.96818669     0.06630
C129        C  0.82152535  0.03771137  0.99913828    -0.11730
C130        C  0.84945784  0.99053427  0.99211668     0.05280
C131        C  0.82038174  0.94412766  0.48417270    -0.07020
C132        C  0.76426381  0.94594938  0.48472365    -0.07760
C133        C  0.73643695  0.99330178  0.99195020    -0.02310
C134        C  0.76599244  0.03994920  0.99866336     0.04500
N135        N  0.74070651  0.08983118  0.00574158     0.67010
H136        H  0.84311229  0.07346597  0.00563179     0.15910
H137        H  0.74215306  0.91024747  0.47881524     0.15620
N138        N  0.84674304  0.89574185  0.47463148     0.74710
O139        O  0.75014716  0.11259899  0.03095480    -0.38740
O140        O  0.71949798  0.11638145  0.48448157    -0.38680
O141        O  0.82461455  0.85087960  0.97903349    -0.39380
O142        O  0.88933570  0.89790167  0.45884612    -0.39450
C143        C  0.38830856  0.03767508  0.99775366    -0.11730
C144        C  0.41453901  0.98838658  0.99520798     0.05280
C145        C  0.38336405  0.94112551  0.49330401    -0.07020
C146        C  0.32746664  0.94458143  0.49349249    -0.07760
C147        C  0.30132034  0.99384342  0.99736369    -0.02310
C148        C  0.33279830  0.04093259  0.99984554     0.04500
N149        N  0.30975749  0.09207500  0.50677152     0.67010
H150        H  0.41119410  0.07428518  0.99979865     0.15910
H151        H  0.30448969  0.90806257  0.49153593     0.15620
N152        N  0.40727270  0.88918702  0.99217468     0.74710
O153        O  0.28238025  0.09810250  0.03110050    -0.38740
O154        O  0.32406483  0.13286435  0.49153846    -0.38680
O155        O  0.43062677  0.87142398  0.01556060    -0.39380
O156        O  0.39467134  0.85706854  0.47113442    -0.39450
C157        C  0.57461241  0.94916902  0.35063753    -0.11730
C158        C  0.57437247  0.99931729  0.33612834     0.05280
C159        C  0.57657640  0.04636929  0.35409635    -0.07020
C160        C  0.57763665  0.04145571  0.38626522    -0.07760
C161        C  0.57757551  0.99126488  0.40105371    -0.02310
C162        C  0.57727867  0.94448132  0.38274853     0.04500
N163        N  0.58136158  0.89210150  0.39602306     0.67010
H164        H  0.57430640  0.91321313  0.33675289     0.15910
H165        H  0.57808774  0.07757555  0.39994379     0.15620
N166        N  0.57811828  0.09914772  0.34050000     0.74710
O167        O  0.55022187  0.85539306  0.38759221    -0.38740
O168        O  0.62219771  0.87987920  0.41106052    -0.38680
O169        O  0.56063753  0.10745561  0.31390817    -0.39380
O170        O  0.59466291  0.13860332  0.35576398    -0.39450
C171        C  0.58369603  0.04208472  0.13535603    -0.11730
C172        C  0.57269331  0.99507434  0.15172594     0.05280
C173        C  0.56467083  0.94662427  0.13574021    -0.07020
C174        C  0.56739466  0.94685022  0.10344864    -0.07760
C175        C  0.57751531  0.99418117  0.08677302    -0.02310
C176        C  0.58671135  0.04230584  0.10317909     0.04500
N177        N  0.60117041  0.09128605  0.08786464     0.67010
H178        H  0.59117844  0.07882940  0.14779423     0.15910
H179        H  0.56030294  0.90984110  0.09125571     0.15620
N180        N  0.55462857  0.89694328  0.15167711     0.74710
O181        O  0.57994332  0.13472179  0.09623084    -0.38740
O182        O  0.64182009  0.09273058  0.07042333    -0.38680
O183        O  0.52471974  0.89548492  0.17524671    -0.39380
O184        O  0.57117743  0.85344638  0.14039369    -0.39450
C185        C  0.11161632  0.32013757  0.48646368    -0.11730
C186        C  0.06766923  0.34557902  0.00037334     0.05280
C187        C  0.02519752  0.31337241  0.01166812    -0.07020
C188        C  0.02863065  0.25728745  0.00988413    -0.07760
C189        C  0.07194668  0.23166566  0.99514306    -0.02310
C190        C  0.11351739  0.26429653  0.48272764     0.04500
N191        N  0.15664675  0.24211768  0.46485563     0.67010
H192        H  0.14389908  0.34417618  0.47696328     0.15910
H193        H  0.99659045  0.23386003  0.02004499     0.15620
N194        N  0.97824422  0.33653743  0.02511272     0.74710
O195        O  0.14710360  0.21058395  0.44297712    -0.38740
O196        O  0.20344564  0.25969990  0.96805209    -0.38680
O197        O  0.94547994  0.36007997  0.50804845    -0.39380
O198        O  0.96359675  0.32275577  0.05187263    -0.39450
C199        C  0.11320214  0.69389919  0.02446852    -0.11730
C200        C  0.07259550  0.66997359  0.00741934     0.05280
C201        C  0.03433499  0.70358442  0.49371916    -0.07020
C202        C  0.03707623  0.75947783  0.49782526    -0.07760
C203        C  0.07595580  0.78334903  0.01649161    -0.02310
C204        C  0.11461960  0.74934275  0.02986919     0.04500
N205        N  0.15362922  0.76944214  0.05069646     0.67010
H206        H  0.14257666  0.66879636  0.03537252     0.15910
H207        H  0.00784655  0.78415649  0.48656247     0.15620
N208        N  0.99291748  0.68203023  0.47513041     0.74710
O209        O  0.13902944  0.79553640  0.07414921    -0.38740
O210        O  0.20131890  0.75384510  0.04846338    -0.38680
O211        O  0.95381472  0.65848267  0.48782597    -0.39380
O212        O  0.98954164  0.69656697  0.44742518    -0.39450
C213        C  0.02690262  0.52408299  0.39611219    -0.11730
C214        C  0.07224667  0.50598896  0.41146652     0.05280
C215        C  0.11611180  0.48654547  0.39400632    -0.07020
C216        C  0.11368412  0.48667472  0.36182317    -0.07760
C217        C  0.06850790  0.50514470  0.34662383    -0.02310
C218        C  0.02424248  0.52434109  0.36390614     0.04500
N219        N  0.97596255  0.54277782  0.34972877     0.67010
H220        H  0.99338071  0.53918891  0.40940764     0.15910
H221        H  0.14715760  0.47148187  0.34847050     0.15620
N222        N  0.16231719  0.46448719  0.40832292     0.74710
O223        O  0.93241053  0.54160298  0.36464644    -0.38740
O224        O  0.97702390  0.56525389  0.32374227    -0.38680
O225        O  0.15705402  0.42819054  0.42838791    -0.39380
O226        O  0.20811752  0.47435566  0.39727080    -0.39450
C227        C  0.11000889  0.48101400  0.11201698    -0.11730
C228        C  0.06582529  0.50255087  0.09688872     0.05280
C229        C  0.02290525  0.52285966  0.11483972    -0.07020
C230        C  0.02580944  0.52239198  0.14703087    -0.07760
C231        C  0.06984900  0.50066450  0.16195944    -0.02310
C232        C  0.11266881  0.48002055  0.14425381     0.04500
N233        N  0.16034140  0.46112126  0.15847413     0.67010
H234        H  0.14341652  0.46586937  0.09863601     0.15910
H235        H  0.99286576  0.53826613  0.16054412     0.15620
N236        N  0.97645425  0.54487978  0.10097849     0.74710
O237        O  0.18706333  0.42390581  0.14622244    -0.38740
O238        O  0.18015722  0.48691912  0.18042819    -0.38680
O239        O  0.94332939  0.51403736  0.08848349    -0.39380
O240        O  0.96292259  0.59233298  0.10705462    -0.39450
C241        C  0.31521742  0.53004697  0.27678161    -0.11730
C242        C  0.34221667  0.49610755  0.25615356     0.05280
C243        C  0.31235142  0.46382216  0.23596915    -0.07020
C244        C  0.25675812  0.46593202  0.23715032    -0.07760
C245        C  0.22983846  0.50216682  0.25629959    -0.02310
C246        C  0.25934917  0.53385610  0.27696586     0.04500
N247        N  0.23367688  0.56743540  0.29943662     0.67010
H248        H  0.33777722  0.55433629  0.29258487     0.15910
H249        H  0.23434181  0.44046184  0.22191879     0.15620
N250        N  0.33754167  0.43132455  0.21276565     0.74710
O251        O  0.24961769  0.56723167  0.32682025    -0.38740
O252        O  0.20162815  0.60328486  0.29117761    -0.38680
O253        O  0.31948833  0.38523170  0.20713532    -0.39380
O254        O  0.37173093  0.45168311  0.19459470    -0.39450
C255        C  0.61802630  0.18561596  0.22601301    -0.11730
C256        C  0.57180423  0.16030316  0.23765923     0.05280
C257        C  0.52568155  0.19120705  0.24316449    -0.07020
C258        C  0.52804399  0.24645356  0.23891153    -0.07760
C259        C  0.57488950  0.27244539  0.22854344    -0.02310
C260        C  0.61971467  0.24094860  0.22050459     0.04500
N261        N  0.66612602  0.26371825  0.20568996     0.67010
H262        H  0.65265985  0.16183746  0.22005605     0.15910
H263        H  0.49326699  0.26932011  0.24569218     0.15620
N264        N  0.47641831  0.16801253  0.25391856     0.74710
O265        O  0.71161198  0.24403522  0.21021801    -0.38740
O266        O  0.66128586  0.30023623  0.18582676    -0.38680
O267        O  0.47431391  0.14401517  0.27946194    -0.39380
O268        O  0.43349083  0.18022152  0.24093155    -0.39450
C269        C  0.61624530  0.75622295  0.22461886    -0.11730
C270        C  0.57135204  0.72781814  0.23540046     0.05280
C271        C  0.52749860  0.75660454  0.24790206    -0.07020
C272        C  0.52955795  0.81225241  0.24902291    -0.07760
C273        C  0.57513579  0.84037453  0.23939362    -0.02310
C274        C  0.61884343  0.81204794  0.22663105     0.04500
N275        N  0.66568948  0.83894719  0.21516252     0.67010
H276        H  0.64962147  0.73501249  0.21442872     0.15910
H277        H  0.49604057  0.83349289  0.25910907     0.15620
N278        N  0.48218731  0.73034948  0.26175160     0.74710
O279        O  0.71120281  0.82155035  0.22192020    -0.38740
O280        O  0.66182949  0.87447375  0.19464589    -0.38680
O281        O  0.48832861  0.69984134  0.28458920    -0.39380
O282        O  0.43576629  0.74481774  0.25477881    -0.39450
C283        C  0.82726044  0.47775227  0.28892667    -0.11730
C284        C  0.79786329  0.50329697  0.26613801     0.05280
C285        C  0.82485883  0.52522126  0.24022512    -0.07020
C286        C  0.88042399  0.52258210  0.23819743    -0.07760
C287        C  0.91011065  0.49745346  0.26101114    -0.02310
C288        C  0.88323982  0.47412930  0.28690231     0.04500
N289        N  0.91096789  0.44812602  0.31167055     0.67010
H290        H  0.80607659  0.45984728  0.30826654     0.15910
H291        H  0.90067097  0.53983713  0.21830041     0.15620
N292        N  0.79649556  0.54706707  0.21475720     0.74710
O293        O  0.88822114  0.44217095  0.33755929    -0.38740
O294        O  0.95554963  0.42614107  0.30730779    -0.38680
O295        O  0.77340950  0.59161369  0.21745031    -0.39380
O296        O  0.80435303  0.52810359  0.18820750    -0.39450
C297        C  0.73895040  0.50159985  0.76765678     0.03670
C298        C  0.71155222  0.45152217  0.76585822    -0.12480
C299        C  0.65870153  0.45154533  0.75571737     0.01170
C300        C  0.64011526  0.49967869  0.74434834    -0.11010
C301        C  0.65666241  0.54802733  0.75650049     0.03660
C302        C  0.70902032  0.54998600  0.76717201    -0.10430
H303        H  0.73153329  0.41414687  0.77059853     0.09250
H304        H  0.60575214  0.49914382  0.73061001     0.06780
H305        H  0.72695684  0.58786948  0.77327338     0.06630
C306        C  0.57273053  0.66862246  0.73654086     0.03670
C307        C  0.61954379  0.64160700  0.74597302    -0.12480
C308        C  0.61450347  0.59028787  0.75847521     0.01170
C309        C  0.56249756  0.57211343  0.76482979    -0.11010
C310        C  0.52080362  0.58830579  0.74612834     0.03660
C311        C  0.52567943  0.63823566  0.73188707    -0.10430
H312        H  0.65845796  0.66022971  0.74460013     0.09250
H313        H  0.55696158  0.53740280  0.77885163     0.06780
H314        H  0.49251465  0.65459946  0.71935041     0.06630
C315        C  0.57714921  0.33172344  0.73182194     0.03670
C316        C  0.62336398  0.35797371  0.74310501    -0.12480
C317        C  0.61774810  0.40759388  0.75751967     0.01170
C318        C  0.56547839  0.42371618  0.76493589    -0.11010
C319        C  0.52360920  0.40902807  0.74587729     0.03660
C320        C  0.52948352  0.36182133  0.72912745    -0.10430
H321        H  0.66244864  0.34017823  0.74191036     0.09250
H322        H  0.55982105  0.45628505  0.78049202     0.06780
H323        H  0.49644613  0.34704708  0.71582161     0.06630
C324        C  0.40117257  0.49730550  0.75404015     0.03670
C325        C  0.42854345  0.54672165  0.75081089    -0.12480
C326        C  0.48029428  0.54696707  0.73835182     0.01170
C327        C  0.49990496  0.49860718  0.72667885    -0.11010
C328        C  0.48226426  0.45020197  0.73950868     0.03660
C329        C  0.43084177  0.44912946  0.75249586    -0.10430
H330        H  0.40971848  0.58412474  0.75709825     0.09250
H331        H  0.53404678  0.49904139  0.71155878     0.06780
H332        H  0.41348338  0.41158525  0.76016383     0.06630
O333        O  0.11379466  0.58329124  0.50664327    -0.71240
O334        O  0.11148412  0.43099150  0.00165325    -0.71460
O335        O  0.11446903  0.51095357  0.96054257    -0.71320
O336        O  0.11070760  0.50249509  0.54786216    -0.71330
O337        O  0.02473208  0.50953228  0.54751407    -0.71290
O338        O  0.02815748  0.50664519  0.96034657    -0.71310
O339        O  0.02527636  0.43195143  0.50467856    -0.71250
O340        O  0.02782859  0.58471998  0.00294305    -0.71430
V341        V  0.11101918  0.50708338  0.50419252     1.35240
V342        V  0.02813006  0.50827243  0.50388473     1.35170
C343        C  0.07122638  0.61024839  0.50516944     0.78000
C344        C  0.06793643  0.40525848  0.50255338     0.78050
C345        C  0.07185539  0.50794931  0.94551317     0.77920
C346        C  0.06698652  0.50509557  0.56269263     0.77890
O347        O  0.99340352  0.54294973  0.75621566    -0.71240
O348        O  0.14506662  0.54571186  0.75297954    -0.71460
O349        O  0.06719164  0.54387226  0.71055362    -0.71320
O350        O  0.07083389  0.54616336  0.79754482    -0.71330
O351        O  0.06886304  0.45920401  0.79869741    -0.71290
O352        O  0.07270866  0.45708754  0.71101784    -0.71310
O353        O  0.14583656  0.45894589  0.75557597    -0.71250
O354        O  0.99507183  0.45608873  0.75492765    -0.71430
V355        V  0.06920332  0.54299784  0.75416928     1.35240
V356        V  0.07055511  0.45948636  0.75491182     1.35170
C357        C  0.96862448  0.49878343  0.75733328     0.78000
C358        C  0.17114289  0.50264868  0.75517903     0.78050
C359        C  0.07002380  0.50037729  0.69592009     0.77920
C360        C  0.06908982  0.50333580  0.81289744     0.77890
O361        O  0.65185908  0.94862576  0.49255224    -0.71240
O362        O  0.50053420  0.94587427  0.99571031    -0.71460
O363        O  0.57460734  0.94683614  0.95049985    -0.71320
O364        O  0.57801207  0.94861216  0.53810952    -0.71330
O365        O  0.57296640  0.03513000  0.53713260    -0.71290
O366        O  0.57707785  0.03343659  0.95021086    -0.71310
O367        O  0.49933433  0.03240641  0.49327766    -0.71250
O368        O  0.65043417  0.03521375  0.99409431    -0.71430
V369        V  0.57616924  0.94905886  0.49425785     1.35240
V370        V  0.57491429  0.03233478  0.49368666     1.35170
C371        C  0.67715034  0.99245891  0.49291523     0.78000
C372        C  0.47389085  0.98861407  0.49466006     0.78050
C373        C  0.57648795  0.99009400  0.93532132     0.77920
C374        C  0.57629047  0.99254443  0.55260484     0.77890
O375        O  0.52938243  0.07497308  0.74305590    -0.71240
O376        O  0.53159353  0.92394533  0.74460770    -0.71460
O377        O  0.53071035  0.00017671  0.78797934    -0.71320
O378        O  0.52983908  0.99790110  0.70069061    -0.71330
O379        O  0.61647238  0.99963112  0.69960081    -0.71290
O380        O  0.61733658  0.00167270  0.78697239    -0.71310
O381        O  0.61805300  0.92528941  0.74356718    -0.71250
O382        O  0.61578592  0.07650362  0.74224791    -0.71430
V383        V  0.53206522  0.99939262  0.74423797     1.35240
V384        V  0.61524680  0.00084422  0.74325764     1.35170
C385        C  0.57219075  0.10156574  0.74147215     0.78000
C386        C  0.57516112  0.89891015  0.74287150     0.78050
C387        C  0.57413937  0.00068700  0.80228769     0.77920
C388        C  0.57299602  0.99745274  0.68540658     0.77890
C389        C  0.07428335  0.84261134  0.52312122     0.03670
C390        C  0.12197331  0.87316347  0.52538958    -0.12480
C391        C  0.12089036  0.92483310  0.53847501     0.01170
C392        C  0.07175241  0.94125253  0.55126912    -0.11010
C393        C  0.02417069  0.92301791  0.53806800     0.03660
C394        C  0.02505987  0.87040170  0.52634616    -0.10430
H395        H  0.15906709  0.85697746  0.51656219     0.09250
H396        H  0.07041271  0.97565861  0.56615411     0.06780
H397        H  0.98819223  0.85199450  0.51934732     0.06630
C398        C  0.24209011  0.99560140  0.50143153     0.03670
C399        C  0.21390958  0.95563573  0.51863046    -0.12480
C400        C  0.16272096  0.96697494  0.53074107     0.01170
C401        C  0.14659465  0.02062680  0.52874563    -0.11010
C402        C  0.16425472  0.05257357  0.50430267     0.03660
C403        C  0.21286181  0.03973963  0.49019820    -0.10430
H404        H  0.23194757  0.91742772  0.52361255     0.09250
H405        H  0.11434291  0.03567957  0.54232187     0.06780
H406        H  0.22903922  0.06530826  0.47218924     0.06630
C407        C  0.07302002  0.17153332  0.49277344     0.03670
C408        C  0.12154489  0.14311350  0.49604135    -0.12480
C409        C  0.12361592  0.08788427  0.49036431     0.01170
C410        C  0.07730245  0.06190461  0.48082898    -0.11010
C411        C  0.02745290  0.08551250  0.48607181     0.03660
C412        C  0.02521545  0.14126649  0.48989694    -0.10430
H413        H  0.15684513  0.16332674  0.50413315     0.09250
H414        H  0.07879081  0.01883468  0.47761532     0.06780
H415        H  0.98658020  0.16001245  0.49194622     0.06630
C416        C  0.90811725  0.99150779  0.49638994     0.03670
C417        C  0.93405500  0.95249426  0.51480994    -0.12480
C418        C  0.98410539  0.96437300  0.52749456     0.01170
C419        C  0.00174357  0.01741670  0.52401235    -0.11010
C420        C  0.98601354  0.04875193  0.49924323     0.03660
C421        C  0.93759797  0.03650875  0.48565422    -0.10430
H422        H  0.91470789  0.91488442  0.52034870     0.09250
H423        H  0.03385217  0.03258919  0.53699952     0.06780
H424        H  0.92179957  0.06276322  0.46818650     0.06630
C425        C  0.82151792  0.03770776  0.49913762    -0.11730
C426        C  0.84945043  0.99053027  0.49211687     0.05280
C427        C  0.82038926  0.94413212  0.98417157    -0.07020
C428        C  0.76427134  0.94595385  0.98472247    -0.07760
C429        C  0.73642945  0.99329774  0.49195046    -0.02310
C430        C  0.76598501  0.03994557  0.49866265     0.04500
N431        N  0.74069914  0.08982810  0.50573967     0.67010
H432        H  0.84310483  0.07346277  0.50563042     0.15910
H433        H  0.74216060  0.91025231  0.97881333     0.15620
N434        N  0.84675068  0.89574685  0.97462953     0.74710
O435        O  0.75013990  0.11259782  0.53095230    -0.38740
O436        O  0.71950551  0.11638618  0.98448410    -0.38680
O437        O  0.82460722  0.85087480  0.47903671    -0.39380
O438        O  0.88934390  0.89790754  0.95884471    -0.39450
C439        C  0.38830119  0.03767236  0.49775287    -0.11730
C440        C  0.41453149  0.98838376  0.49520723     0.05280
C441        C  0.38337169  0.94112818  0.99330515    -0.07020
C442        C  0.32747423  0.94458392  0.99349376    -0.07760
C443        C  0.30131289  0.99384097  0.49736255    -0.02310
C444        C  0.33279093  0.04093006  0.49984448     0.04500
N445        N  0.30976483  0.09207744  0.00677279     0.67010
H446        H  0.41118683  0.07428237  0.49979801     0.15910
H447        H  0.30449741  0.90806496  0.99153737     0.15620
N448        N  0.40726490  0.88918431  0.49217315     0.74710
O449        O  0.28237287  0.09810037  0.53109919    -0.38740
O450        O  0.32407210  0.13286699  0.99153987    -0.38680
O451        O  0.43061812  0.87142029  0.51555912    -0.39380
O452        O  0.39467859  0.85707040  0.97113648    -0.39450
C453        C  0.57461690  0.94917169  0.85063768    -0.11730
C454        C  0.57437752  0.99931977  0.83612828     0.05280
C455        C  0.57658311  0.04637199  0.85409605    -0.07020
C456        C  0.57764415  0.04145876  0.88626495    -0.07760
C457        C  0.57758225  0.99126809  0.90105364    -0.02310
C458        C  0.57728405  0.94448433  0.88274864     0.04500
N459        N  0.58136631  0.89210458  0.89602334     0.67010
H460        H  0.57430964  0.91321562  0.83675321     0.15910
H461        H  0.57809639  0.07757872  0.89994340     0.15620
N462        N  0.57812572  0.09915024  0.84049947     0.74710
O463        O  0.55022535  0.85539677  0.88759309    -0.38740
O464        O  0.62220285  0.87988150  0.91106023    -0.38680
O465        O  0.56064555  0.10745801  0.81390750    -0.39380
O466        O  0.59467078  0.13860584  0.85576331    -0.39450
C467        C  0.58369148  0.04208241  0.63535573    -0.11730
C468        C  0.57268898  0.99507239  0.65172602     0.05280
C469        C  0.56466527  0.94662215  0.63574064    -0.07020
C470        C  0.56738775  0.94684761  0.60344903    -0.07760
C471        C  0.57750836  0.99417821  0.58677306    -0.02310
C472        C  0.58670554  0.04230301  0.60317878     0.04500
N473        N  0.60116467  0.09128283  0.58786394     0.67010
H474        H  0.59117483  0.07882720  0.64779363     0.15910
H475        H  0.56029520  0.90983840  0.59125634     0.15620
N476        N  0.55462330  0.89694146  0.65167793     0.74710
O477        O  0.57993807  0.13471888  0.59623001    -0.38740
O478        O  0.64181407  0.09272673  0.57042239    -0.38680
O479        O  0.52471608  0.89548377  0.67524822    -0.39380
O480        O  0.57117088  0.85344420  0.64039435    -0.39450
C481        C  0.11162222  0.32014077  0.98646416    -0.11730
C482        C  0.06766358  0.34557629  0.50037282     0.05280
C483        C  0.02519112  0.31337011  0.51166711    -0.07020
C484        C  0.02862348  0.25728510  0.50988295    -0.07760
C485        C  0.07193942  0.23166286  0.49514207    -0.02310
C486        C  0.11352414  0.26429970  0.98272844     0.04500
N487        N  0.15665385  0.24212118  0.96485658     0.67010
H488        H  0.14390454  0.34417971  0.97696354     0.15910
H489        H  0.99658278  0.23385805  0.52004354     0.15620
N490        N  0.97823771  0.33653564  0.52511128     0.74710
O491        O  0.14711120  0.21058713  0.94297814    -0.38740
O492        O  0.20343877  0.25969577  0.46805112    -0.38680
O493        O  0.94548559  0.36008121  0.00805020    -0.39380
O494        O  0.96358915  0.32275388  0.55187099    -0.39450
C495        C  0.11319802  0.69389687  0.52446854    -0.11730
C496        C  0.07259180  0.66997086  0.50741924     0.05280
C497        C  0.03433892  0.70358758  0.99371936    -0.07020
C498        C  0.03708105  0.75948100  0.99782533    -0.07760
C499        C  0.07595051  0.78334627  0.51649166    -0.02310
C500        C  0.11461472  0.74934045  0.52986926     0.04500
N501        N  0.15362402  0.76944030  0.55069659     0.67010
H502        H  0.14257274  0.66879434  0.53537259     0.15910
H503        H  0.00785161  0.78416001  0.98656260     0.15620
N504        N  0.99292073  0.68203390  0.97513089     0.74710
O505        O  0.13902384  0.79553445  0.57414931    -0.38740
O506        O  0.20131391  0.75384389  0.54846356    -0.38680
O507        O  0.95381912  0.65848473  0.98782663    -0.39380
O508        O  0.98954279  0.69657287  0.94742614    -0.39450
C509        C  0.02690530  0.52408470  0.89611239    -0.11730
C510        C  0.07224977  0.50599107  0.91146649     0.05280
C511        C  0.11611450  0.48654729  0.89400607    -0.07020
C512        C  0.11368604  0.48667598  0.86182293    -0.07760
C513        C  0.06850939  0.50514556  0.84662383    -0.02310
C514        C  0.02424433  0.52434208  0.86390638     0.04500
N515        N  0.97596387  0.54277812  0.84972930     0.67010
H516        H  0.99338363  0.53919075  0.90940800     0.15910
H517        H  0.14715925  0.47148297  0.84847008     0.15620
N518        N  0.16232017  0.46448917  0.90832245     0.74710
O519        O  0.93241220  0.54160308  0.86464731    -0.38740
O520        O  0.97702436  0.56525366  0.82374264    -0.38680
O521        O  0.15705735  0.42819301  0.92838776    -0.39380
O522        O  0.20812026  0.47435715  0.89726985    -0.39450
C523        C  0.11000542  0.48101149  0.61201685    -0.11730
C524        C  0.06582159  0.50254824  0.59688874     0.05280
C525        C  0.02290198  0.52285751  0.61483990    -0.07020
C526        C  0.02580682  0.52239037  0.64703104    -0.07760
C527        C  0.06984665  0.50066305  0.66195945    -0.02310
C528        C  0.11266604  0.48001870  0.64425365     0.04500
N529        N  0.16033900  0.46111980  0.65847375     0.67010
H530        H  0.14341278  0.46586659  0.59863576     0.15910
H531        H  0.99286346  0.53826484  0.66054442     0.15620
N532        N  0.97645083  0.54487765  0.60097884     0.74710
O533        O  0.18706074  0.42390416  0.64622211    -0.38740
O534        O  0.18015530  0.48691822  0.68042744    -0.38680
O535        O  0.94332597  0.51403528  0.58848380    -0.39380
O536        O  0.96291916  0.59233080  0.60705508    -0.39450
C537        C  0.31521681  0.53004709  0.77678124    -0.11730
C538        C  0.34221616  0.49610803  0.75615305     0.05280
C539        C  0.31235104  0.46382316  0.73596828    -0.07020
C540        C  0.25675773  0.46593294  0.73714942    -0.07760
C541        C  0.22983798  0.50216731  0.75629891    -0.02310
C542        C  0.25934857  0.53385628  0.77696539     0.04500
N543        N  0.23367615  0.56743537  0.79943621     0.67010
H544        H  0.33777652  0.55433609  0.79258471     0.15910
H545        H  0.23434147  0.44046302  0.72191774     0.15620
N546        N  0.33754141  0.43132619  0.71276450     0.74710
O547        O  0.24961697  0.56723159  0.82681984    -0.38740
O548        O  0.20162730  0.60328476  0.79117725    -0.38680
O549        O  0.31948731  0.38523403  0.70713318    -0.39380
O550        O  0.37173154  0.45168501  0.69459419    -0.39450
C551        C  0.61802500  0.18561617  0.72601091    -0.11730
C552        C  0.57180377  0.16030333  0.73765826     0.05280
C553        C  0.52568143  0.19120714  0.74316466    -0.07020
C554        C  0.52804344  0.24645364  0.73891156    -0.07760
C555        C  0.57488825  0.27244550  0.72854242    -0.02310
C556        C  0.61971295  0.24094885  0.72050255     0.04500
N557        N  0.66612339  0.26371876  0.70568705     0.67010
H558        H  0.65265818  0.16183770  0.72005316     0.15910
H559        H  0.49326690  0.26932024  0.74569301     0.15620
N560        N  0.47641912  0.16801260  0.75392020     0.74710
O561        O  0.71160959  0.24403527  0.71021372    -0.38740
O562        O  0.66128200  0.30023754  0.68582444    -0.38680
O563        O  0.47431708  0.14401506  0.77946357    -0.39380
O564        O  0.43349040  0.18022168  0.74093456    -0.39450
C565        C  0.61624593  0.75622287  0.72462024    -0.11730
C566        C  0.57135256  0.72781821  0.73540183     0.05280
C567        C  0.52749921  0.75660475  0.74790341    -0.07020
C568        C  0.52955870  0.81225263  0.74902420    -0.07760
C569        C  0.57513655  0.84037465  0.73939481    -0.02310
C570        C  0.61884415  0.81204787  0.72663232     0.04500
N571        N  0.66569021  0.83894693  0.71516370     0.67010
H572        H  0.64962205  0.73501232  0.71443013     0.15910
H573        H  0.49604133  0.83349322  0.75911030     0.15620
N574        N  0.48218779  0.73034983  0.76175289     0.74710
O575        O  0.71120352  0.82155067  0.72192190    -0.38740
O576        O  0.66183033  0.87447242  0.69464645    -0.38680
O577        O  0.48832894  0.69984139  0.78459037    -0.39380
O578        O  0.43576684  0.74481836  0.75478013    -0.39450
C579        C  0.82726001  0.47775156  0.78892713    -0.11730
C580        C  0.79786287  0.50329581  0.76613831     0.05280
C581        C  0.82485840  0.52521980  0.74022533    -0.07020
C582        C  0.88042355  0.52258077  0.73819770    -0.07760
C583        C  0.91011023  0.49745266  0.76101160    -0.02310
C584        C  0.88323943  0.47412881  0.78690286     0.04500
N585        N  0.91096757  0.44812616  0.81167128     0.67010
H586        H  0.80607616  0.45984681  0.80826708     0.15910
H587        H  0.90067055  0.53983556  0.71830062     0.15620
N588        N  0.79649514  0.54706526  0.71475729     0.74710
O589        O  0.88822081  0.44217153  0.83756006    -0.38740
O590        O  0.95554947  0.42614145  0.80730871    -0.38680
O591        O  0.77340793  0.59161127  0.71745043    -0.39380
O592        O  0.80435351  0.52810225  0.68820756    -0.39450
loop_ 
_geom_bond_atom_site_label_1 
_geom_bond_atom_site_label_2 
_geom_bond_distance 
_geom_bond_site_symmetry_2 
_ccdc_geom_bond_type 
C1            C2   1.429       .  A
C1            C6   1.426       .  A
C1          C284   1.480       .  S
C2            C3   1.405       .  A
C2            H7   1.083       .  S
C3            C4   1.385       .  A
C3           C21   1.503       .  S
C4            C5   1.385       .  A
C4            H8   1.057       .  S
C5            C6   1.402       .  A
C5           C12   1.499       .  S
C6            H9   1.083       .  S
C10          C11   1.423       .  A
C10          C15   1.420       .  A
C10         C270   1.481       .  S
C11          C12   1.396       .  A
C11          H16   1.082       .  S
C12          C13   1.404       .  A
C13          C14   1.396       .  A
C13          H17   1.067       .  S
C14          C15   1.396       .  A
C14          C30   1.491       .  S
C15          H18   1.083       .  S
C19          C20   1.425       .  A
C19          C24   1.422       .  A
C19         C259   1.490       .  S
C20          C21   1.398       .  A
C20          H25   1.079       .  S
C21          C22   1.407       .  A
C22          C23   1.398       .  A
C22          H26   1.068       .  S
C23          C24   1.395       .  A
C23          C32   1.492       .  S
C24          H27   1.083       .  S
C28          C29   1.417       .  A
C28          C33   1.419       .  A
C28         C242   1.482       .  S
C29          C30   1.400       .  A
C29          H34   1.083       .  S
C30          C31   1.400       .  A
C31          C32   1.399       .  A
C31          H35   1.072       .  S
C32          C33   1.401       .  A
C33          H36   1.083       .  S
O37          V45   1.909       .  S
O37          C47   1.267       .  A
O38         V341   1.905       .  S
O38         C344   1.266       .  A
O39         V341   1.902       .  S
O39          C49   1.265       .  A
O40          V45   1.903       .  S
O40          C50   1.266       .  A
O41          V46   1.899       .  S
O41          C50   1.263       .  A
O42         V342   1.895       .  S
O42          C49   1.264       .  A
O43          V46   1.909       .  S
O43          C48   1.266       .  A
O44         V342   1.911       .  S
O44         C343   1.266       .  A
V45         O334   1.905       .  S
V45         O335   1.902   1_554  S
V45          V46   2.081       .  T
V46         O338   1.895   1_554  S
V46         O340   1.911       .  S
C47         C200   1.496       .  S
C47         O340   1.266       .  A
C48         C186   1.495       .  S
C48         O334   1.266       .  A
C49         C214   1.482       .  S
C50         C228   1.489       .  S
O51          V59   1.904   1_655  S
O51          C61   1.266       .  A
O52          V59   1.905       .  S
O52          C62   1.266       .  A
O53          V59   1.899       .  S
O53          C63   1.263       .  A
O54          V59   1.890       .  S
O54          C64   1.260       .  A
O55          V60   1.905       .  S
O55          C64   1.265       .  A
O56          V60   1.910       .  S
O56          C63   1.267       .  A
O57          V60   1.891       .  S
O57          C62   1.262       .  A
O58          V60   1.897   1_655  S
O58          C61   1.262       .  A
V59          V60   2.088       .  T
C61         C287   1.475       .  S
C62         C245   1.475       .  S
C63         C231   1.477       .  S
C64         C217   1.468       .  S
O65          V73   1.900       .  S
O65          C75   1.265       .  A
O66         V369   1.900       .  S
O66         C372   1.263       .  A
O67         V369   1.906       .  S
O67          C77   1.266       .  A
O68          V73   1.909   1_554  S
O68          C78   1.268       .  A
O69          V74   1.891   1_554  S
O69          C78   1.262   1_545  A
O70         V370   1.891       .  S
O70          C77   1.264   1_545  A
O71          V74   1.898       .  S
O71          C76   1.266   1_545  A
O72         V370   1.897       .  S
O72         C371   1.264   1_545  A
V73         O362   1.900       .  S
V73         O363   1.906       .  S
V73          V74   2.082   1_565  T
V74         O366   1.891       .  S
V74         O368   1.897       .  S
C75         C133   1.488       .  S
C75         O368   1.264   1_565  A
C76         C144   1.490       .  S
C76         O362   1.263       .  A
C77         C161   1.491       .  S
C78         C175   1.488       .  S
O79          V87   1.891   1_545  S
O79          C89   1.263       .  A
O80          V87   1.886       .  S
O80          C90   1.263       .  A
O81          V87   1.903   1_545  S
O81          C91   1.264       .  A
O82          V87   1.897       .  S
O82          C92   1.262       .  A
O83          V88   1.899   1_565  S
O83          C92   1.263       .  A
O84          V88   1.903       .  S
O84          C91   1.264       .  A
O85          V88   1.890   1_565  S
O85          C90   1.262       .  A
O86          V88   1.891       .  S
O86          C89   1.264       .  A
V87          V88   2.088   1_565  T
C89         C256   1.477       .  S
C90         C273   1.471       .  S
C91         C158   1.473   1_545  S
C92         C172   1.467       .  S
C93          C94   1.423       .  A
C93          C98   1.425       .  A
C93         C203   1.510       .  S
C94          C95   1.413       .  A
C94          H99   1.082       .  S
C95          C96   1.408       .  A
C95         C104   1.518       .  S
C96          C97   1.408       .  A
C96         H100   1.078       .  S
C97          C98   1.412       .  A
C97         C122   1.520   1_455  S
C98         H101   1.081   1_455  S
C102        C103   1.426       .  A
C102        C107   1.417   1_564  A
C102        C147   1.495   1_554  S
C103        C104   1.411       .  A
C103        H108   1.081       .  S
C104        C105   1.405   1_565  A
C105        C106   1.394       .  A
C105        H109   1.065       .  S
C106        C107   1.396   1_554  A
C106        C113   1.486   1_554  S
C107        H110   1.083       .  S
C111        C112   1.421       .  A
C111        C116   1.424       .  A
C111        C189   1.507       .  S
C112        C113   1.404       .  A
C112        H117   1.083   1_556  S
C113        C114   1.399       .  A
C114        C115   1.401       .  A
C114        H118   1.086       .  S
C115        C116   1.405       .  A
C115        C124   1.492   1_455  S
C116        H119   1.081   1_455  S
C120        C121   1.426   1_556  A
C120        C125   1.418   1_565  A
C120        C130   1.487       .  S
C121        C122   1.411       .  A
C121        H126   1.082       .  S
C122        C123   1.403   1_665  A
C123        C124   1.393   1_454  A
C123        H127   1.061       .  S
C124        C125   1.393       .  A
C125        H128   1.083       .  S
C129        C130   1.405   1_545  A
C129        C134   1.396       .  A
C129        H136   1.084   1_556  S
C130        C427   1.415       .  A
C131        C132   1.410       .  A
C131        C426   1.415       .  A
C131        N138   1.439       .  S
C132        C429   1.410       .  A
C132        H137   1.083       .  S
C133        C134   1.413   1_565  A
C133        C428   1.410       .  A
C134        N135   1.433   1_556  S
N135        O139   1.262       .  A
N135        O436   1.262   1_554  A
N138        O142   1.263       .  A
N138        O437   1.263       .  A
O140        N431   1.262       .  A
O141        N434   1.263       .  A
C143        C144   1.402   1_545  A
C143        C148   1.398       .  A
C143        H150   1.083       .  S
C144        C441   1.418       .  A
C145        C146   1.406       .  A
C145        C440   1.418       .  A
C145        N448   1.432       .  S
C146        C443   1.406       .  A
C146        H151   1.082       .  S
C147        C148   1.421   1_565  A
C147        C442   1.406       .  A
C148        N445   1.435   1_556  S
N149        C444   1.435       .  S
N149        O154   1.263       .  A
N149        O449   1.263       .  A
N152        C441   1.432       .  S
N152        O155   1.262   1_556  A
N152        O452   1.262       .  A
O153        N445   1.263       .  A
O156        N448   1.262       .  A
C157        C158   1.402       .  A
C157        C162   1.404       .  A
C157        H164   1.084       .  S
C158        C159   1.415   1_565  A
C159        C160   1.405       .  A
C159        N166   1.444       .  S
C160        C161   1.408   1_545  A
C160        H165   1.083       .  S
C161        C162   1.416       .  A
C162        N163   1.434       .  S
N163        O167   1.262       .  A
N163        O168   1.263       .  A
N166        O169   1.261       .  A
N166        O170   1.263       .  A
C171        C172   1.397   1_545  A
C171        C176   1.401       .  A
C171        H178   1.084       .  S
C172        C173   1.413       .  A
C173        C174   1.405       .  A
C173        N180   1.440       .  S
C174        C175   1.406       .  A
C174        H179   1.083       .  S
C175        C176   1.420   1_565  A
C176        N177   1.435       .  S
N177        O181   1.263       .  A
N177        O182   1.262       .  A
N180        O183   1.262       .  A
N180        O184   1.263       .  A
C185        C190   1.406       .  A
C185        C482   1.405       .  A
C185        H192   1.083       .  S
C186        C187   1.415       .  A
C186        C481   1.405   1_554  A
C187        C188   1.407       .  A
C187        N194   1.432   1_455  S
C188        C189   1.410   1_554  A
C188        H193   1.082   1_455  S
C189        C486   1.422       .  A
C190        C485   1.422       .  A
C190        N191   1.436       .  S
N191        O195   1.263       .  A
N191        O492   1.263       .  A
N194        O198   1.262       .  A
N194        O493   1.262       .  A
O196        N487   1.263       .  A
O197        N490   1.262       .  A
C199        C200   1.403       .  A
C199        C204   1.406       .  A
C199        H206   1.084       .  S
C200        C497   1.416   1_554  A
C201        C202   1.410       .  A
C201        C496   1.416       .  A
C201        N208   1.432   1_455  S
C202        C499   1.411       .  A
C202        H207   1.082       .  S
C203        C204   1.422       .  A
C203        C498   1.411   1_554  A
C204        N205   1.435       .  S
N205        O209   1.262       .  A
N205        O210   1.263       .  A
N208        O211   1.262       .  A
N208        O212   1.262       .  A
C213        C214   1.404       .  A
C213        C218   1.404       .  A
C213        H220   1.083   1_455  S
C214        C215   1.416       .  A
C215        C216   1.402       .  A
C215        N222   1.436       .  S
C216        C217   1.401       .  A
C216        H221   1.084       .  S
C217        C218   1.417       .  A
C218        N219   1.445   1_455  S
N219        O223   1.263       .  A
N219        O224   1.261       .  A
N222        O225   1.262       .  A
N222        O226   1.263       .  A
C227        C228   1.406       .  A
C227        C232   1.405       .  A
C227        H234   1.083       .  S
C228        C229   1.417       .  A
C229        C230   1.403       .  A
C229        N236   1.432   1_455  S
C230        C231   1.401       .  A
C230        H235   1.084   1_455  S
C231        C232   1.412       .  A
C232        N233   1.436       .  S
N233        O237   1.263       .  A
N233        O238   1.261       .  A
N236        O239   1.262       .  A
N236        O240   1.262       .  A
C241        C242   1.404       .  A
C241        C246   1.406       .  A
C241        H248   1.083       .  S
C242        C243   1.416       .  A
C243        C244   1.397       .  A
C243        N250   1.437       .  S
C244        C245   1.400       .  A
C244        H249   1.083       .  S
C245        C246   1.416       .  A
C246        N247   1.436       .  S
N247        O251   1.263       .  A
N247        O252   1.261       .  A
N250        O253   1.262       .  A
N250        O254   1.263       .  A
C255        C256   1.407       .  A
C255        C260   1.403       .  A
C255        H262   1.083       .  S
C256        C257   1.412       .  A
C257        C258   1.394       .  A
C257        N264   1.435       .  S
C258        C259   1.409       .  A
C258        H263   1.082       .  S
C259        C260   1.415       .  A
C260        N261   1.438       .  S
N261        O265   1.263       .  A
N261        O266   1.263       .  A
N264        O267   1.262       .  A
N264        O268   1.263       .  A
C269        C270   1.404       .  A
C269        C274   1.399       .  A
C269        H276   1.083       .  S
C270        C271   1.419       .  A
C271        C272   1.393       .  A
C271        N278   1.435       .  S
C272        C273   1.399       .  A
C272        H277   1.084       .  S
C273        C274   1.415       .  A
C274        N275   1.435       .  S
N275        O279   1.263       .  A
N275        O280   1.262       .  A
N278        O281   1.262       .  A
N278        O282   1.263       .  A
C283        C284   1.399       .  A
C283        C288   1.410       .  A
C283        H290   1.083       .  S
C284        C285   1.415       .  A
C285        C286   1.398       .  A
C285        N292   1.434       .  S
C286        C287   1.399       .  A
C286        H291   1.085       .  S
C287        C288   1.426       .  A
C288        N289   1.446       .  S
N289        O293   1.263       .  A
N289        O294   1.260       .  A
N292        O295   1.262       .  A
N292        O296   1.262       .  A
C297        C298   1.429       .  A
C297        C302   1.426       .  A
C297        C580   1.480       .  S
C298        C299   1.405       .  A
C298        H303   1.083       .  S
C299        C300   1.385       .  A
C299        C317   1.503       .  S
C300        C301   1.385       .  A
C300        H304   1.057       .  S
C301        C302   1.402       .  A
C301        C308   1.499       .  S
C302        H305   1.083       .  S
C306        C307   1.423       .  A
C306        C311   1.420       .  A
C306        C566   1.481       .  S
C307        C308   1.396       .  A
C307        H312   1.082       .  S
C308        C309   1.404       .  A
C309        C310   1.396       .  A
C309        H313   1.067       .  S
C310        C311   1.396       .  A
C310        C326   1.491       .  S
C311        H314   1.083       .  S
C315        C316   1.425       .  A
C315        C320   1.422       .  A
C315        C555   1.490       .  S
C316        C317   1.398       .  A
C316        H321   1.079       .  S
C317        C318   1.407       .  A
C318        C319   1.398       .  A
C318        H322   1.068       .  S
C319        C320   1.395       .  A
C319        C328   1.492       .  S
C320        H323   1.083       .  S
C324        C325   1.417       .  A
C324        C329   1.419       .  A
C324        C538   1.482       .  S
C325        C326   1.400       .  A
C325        H330   1.083       .  S
C326        C327   1.400       .  A
C327        C328   1.399       .  A
C327        H331   1.072       .  S
C328        C329   1.401       .  A
C329        H332   1.083       .  S
O333        V341   1.909       .  S
O333        C343   1.267       .  A
O335        C345   1.265       .  A
O336        V341   1.903       .  S
O336        C346   1.266       .  A
O337        V342   1.899       .  S
O337        C346   1.263       .  A
O338        C345   1.264       .  A
O339        V342   1.909       .  S
O339        C344   1.266       .  A
V341        V342   2.081       .  T
C343        C496   1.496       .  S
C344        C482   1.495       .  S
C345        C510   1.482       .  S
C346        C524   1.489       .  S
O347        V355   1.904   1_655  S
O347        C357   1.266       .  A
O348        V355   1.905       .  S
O348        C358   1.266       .  A
O349        V355   1.899       .  S
O349        C359   1.263       .  A
O350        V355   1.890       .  S
O350        C360   1.260       .  A
O351        V356   1.905       .  S
O351        C360   1.265       .  A
O352        V356   1.910       .  S
O352        C359   1.267       .  A
O353        V356   1.891       .  S
O353        C358   1.262       .  A
O354        V356   1.897   1_655  S
O354        C357   1.262       .  A
V355        V356   2.088       .  T
C357        C583   1.475       .  S
C358        C541   1.475       .  S
C359        C527   1.477       .  S
C360        C513   1.468       .  S
O361        V369   1.900       .  S
O361        C371   1.265       .  A
O363        C373   1.266       .  A
O364        V369   1.909       .  S
O364        C374   1.268       .  A
O365        V370   1.891       .  S
O365        C374   1.261   1_545  A
O366        C373   1.264   1_545  A
O367        V370   1.898       .  S
O367        C372   1.266   1_545  A
V369        V370   2.082   1_565  T
C371        C429   1.488       .  S
C372        C440   1.490       .  S
C373        C457   1.491       .  S
C374        C471   1.488       .  S
O375        V383   1.891   1_545  S
O375        C385   1.263       .  A
O376        V383   1.886       .  S
O376        C386   1.263       .  A
O377        V383   1.903   1_545  S
O377        C387   1.264       .  A
O378        V383   1.897       .  S
O378        C388   1.262       .  A
O379        V384   1.899   1_565  S
O379        C388   1.263       .  A
O380        V384   1.903       .  S
O380        C387   1.264       .  A
O381        V384   1.890   1_565  S
O381        C386   1.262       .  A
O382        V384   1.891       .  S
O382        C385   1.264       .  A
V383        V384   2.088   1_565  T
C385        C552   1.477       .  S
C386        C569   1.471       .  S
C387        C454   1.473   1_545  S
C388        C468   1.467       .  S
C389        C390   1.423       .  A
C389        C394   1.425       .  A
C389        C499   1.510       .  S
C390        C391   1.413       .  A
C390        H395   1.082       .  S
C391        C392   1.408       .  A
C391        C400   1.518       .  S
C392        C393   1.408       .  A
C392        H396   1.078       .  S
C393        C394   1.412       .  A
C393        C418   1.520   1_455  S
C394        H397   1.081   1_455  S
C398        C399   1.426       .  A
C398        C403   1.417   1_565  A
C398        C443   1.495       .  S
C399        C400   1.411       .  A
C399        H404   1.081       .  S
C400        C401   1.405   1_565  A
C401        C402   1.394       .  A
C401        H405   1.065       .  S
C402        C403   1.396       .  A
C402        C409   1.486       .  S
C403        H406   1.083       .  S
C407        C408   1.421       .  A
C407        C412   1.424       .  A
C407        C485   1.507       .  S
C408        C409   1.404       .  A
C408        H413   1.083       .  S
C409        C410   1.399       .  A
C410        C411   1.401       .  A
C410        H414   1.086       .  S
C411        C412   1.405       .  A
C411        C420   1.492   1_455  S
C412        H415   1.081   1_455  S
C416        C417   1.426       .  A
C416        C421   1.418   1_565  A
C416        C426   1.487       .  S
C417        C418   1.411       .  A
C417        H422   1.082       .  S
C418        C419   1.403   1_665  A
C419        C420   1.393   1_455  A
C419        H423   1.061       .  S
C420        C421   1.393       .  A
C421        H424   1.083       .  S
C425        C426   1.405   1_545  A
C425        C430   1.396       .  A
C425        H432   1.084       .  S
C427        C428   1.410       .  A
C427        N434   1.439       .  S
C428        H433   1.083       .  S
C429        C430   1.413   1_565  A
C430        N431   1.433       .  S
N431        O435   1.262       .  A
N434        O438   1.263       .  A
C439        C440   1.402   1_545  A
C439        C444   1.398       .  A
C439        H446   1.083       .  S
C441        C442   1.406       .  A
C442        H447   1.082       .  S
C443        C444   1.421   1_565  A
N445        O450   1.263   1_554  A
N448        O451   1.262       .  A
C453        C454   1.402       .  A
C453        C458   1.404       .  A
C453        H460   1.084       .  S
C454        C455   1.415   1_565  A
C455        C456   1.405       .  A
C455        N462   1.444       .  S
C456        C457   1.408   1_545  A
C456        H461   1.083       .  S
C457        C458   1.416       .  A
C458        N459   1.434       .  S
N459        O463   1.262       .  A
N459        O464   1.263       .  A
N462        O465   1.261       .  A
N462        O466   1.263       .  A
C467        C468   1.397   1_545  A
C467        C472   1.401       .  A
C467        H474   1.084       .  S
C468        C469   1.413       .  A
C469        C470   1.405       .  A
C469        N476   1.440       .  S
C470        C471   1.406       .  A
C470        H475   1.083       .  S
C471        C472   1.420   1_565  A
C472        N473   1.435       .  S
N473        O477   1.263       .  A
N473        O478   1.262       .  A
N476        O479   1.262       .  A
N476        O480   1.263       .  A
C481        C486   1.406       .  A
C481        H488   1.083       .  S
C482        C483   1.415       .  A
C483        C484   1.407       .  A
C483        N490   1.432   1_455  S
C484        C485   1.410       .  A
C484        H489   1.082   1_455  S
C486        N487   1.436       .  S
N487        O491   1.263       .  A
N490        O494   1.262       .  A
C495        C496   1.403       .  A
C495        C500   1.406       .  A
C495        H502   1.084       .  S
C497        C498   1.410       .  A
C497        N504   1.432   1_455  S
C498        H503   1.082       .  S
C499        C500   1.422       .  A
C500        N501   1.435       .  S
N501        O505   1.262       .  A
N501        O506   1.263       .  A
N504        O507   1.262       .  A
N504        O508   1.262       .  A
C509        C510   1.404       .  A
C509        C514   1.404       .  A
C509        H516   1.083   1_455  S
C510        C511   1.416       .  A
C511        C512   1.402       .  A
C511        N518   1.436       .  S
C512        C513   1.401       .  A
C512        H517   1.084       .  S
C513        C514   1.417       .  A
C514        N515   1.445   1_455  S
N515        O519   1.263       .  A
N515        O520   1.261       .  A
N518        O521   1.262       .  A
N518        O522   1.263       .  A
C523        C524   1.406       .  A
C523        C528   1.405       .  A
C523        H530   1.083       .  S
C524        C525   1.417       .  A
C525        C526   1.403       .  A
C525        N532   1.432   1_455  S
C526        C527   1.401       .  A
C526        H531   1.084   1_455  S
C527        C528   1.412       .  A
C528        N529   1.436       .  S
N529        O533   1.263       .  A
N529        O534   1.261       .  A
N532        O535   1.262       .  A
N532        O536   1.262       .  A
C537        C538   1.404       .  A
C537        C542   1.406       .  A
C537        H544   1.083       .  S
C538        C539   1.416       .  A
C539        C540   1.397       .  A
C539        N546   1.437       .  S
C540        C541   1.400       .  A
C540        H545   1.083       .  S
C541        C542   1.416       .  A
C542        N543   1.436       .  S
N543        O547   1.263       .  A
N543        O548   1.261       .  A
N546        O549   1.262       .  A
N546        O550   1.263       .  A
C551        C552   1.407       .  A
C551        C556   1.403       .  A
C551        H558   1.083       .  S
C552        C553   1.412       .  A
C553        C554   1.394       .  A
C553        N560   1.435       .  S
C554        C555   1.409       .  A
C554        H559   1.082       .  S
C555        C556   1.415       .  A
C556        N557   1.438       .  S
N557        O561   1.263       .  A
N557        O562   1.263       .  A
N560        O563   1.262       .  A
N560        O564   1.263       .  A
C565        C566   1.404       .  A
C565        C570   1.399       .  A
C565        H572   1.083       .  S
C566        C567   1.419       .  A
C567        C568   1.393       .  A
C567        N574   1.435       .  S
C568        C569   1.399       .  A
C568        H573   1.084       .  S
C569        C570   1.415       .  A
C570        N571   1.435       .  S
N571        O575   1.263       .  A
N571        O576   1.262       .  A
N574        O577   1.262       .  A
N574        O578   1.263       .  A
C579        C580   1.399       .  A
C579        C584   1.410       .  A
C579        H586   1.083       .  S
C580        C581   1.415       .  A
C581        C582   1.398       .  A
C581        N588   1.434       .  S
C582        C583   1.399       .  A
C582        H587   1.085       .  S
C583        C584   1.426       .  A
C584        N585   1.446       .  S
N585        O589   1.263       .  A
N585        O590   1.260       .  A
N588        O591   1.262       .  A
N588        O592   1.262       .  A
