geometry optimzed in LAMMPS
_audit_creation_date              2020-12-01 
_audit_creation_method            'lammps2cif' 
_symmetry_space_group_name_H-M    'P1' 
_symmetry_Int_Tables_number       1 
_symmetry_cell_setting            triclinic 
loop_ 
_symmetry_equiv_pos_as_xyz 
  x,y,z 
_cell_length_a                    50.6738458 
_cell_length_b                    41.56258287929452 
_cell_length_c                    42.60378008474792 
_cell_angle_alpha                 88.18335470543896 
_cell_angle_beta                  87.40281224772833 
_cell_angle_gamma                 88.45547368064338 
loop_ 
_atom_site_label 
_atom_site_type_symbol 
_atom_site_fract_x 
_atom_site_fract_y 
_atom_site_fract_z 
_atom_site_charge 
O1          O  0.46703843  0.42208368  0.44391113    -0.73800
O2          O  0.43459995  0.45271556  0.46728671    -0.54300
C3          C  0.44250896  0.43002334  0.44917379     0.78300
O4          O  0.05329206  0.43854335  0.06928171    -0.60000
O5          O  0.08350062  0.46470630  0.03694568    -0.53100
C6          C  0.07717327  0.44582536  0.06033316     0.70300
O7          O  0.46345456  0.43467281  0.06788950    -0.74600
O8          O  0.43259314  0.45831282  0.03642493    -0.55100
C9          C  0.43953251  0.43974172  0.05945148     0.76300
O10         O  0.05586479  0.42948680  0.44265245    -0.59700
O11         O  0.08469378  0.46114645  0.46650657    -0.52800
C12         C  0.07920662  0.43863778  0.44804533     0.72900
Zr13       Zr  0.01048381  0.44415577  0.45817643     2.54700
O14         O  0.01348186  0.38605702  0.46715588    -0.80300
O15         O  0.01133771  0.44141654  0.40113334    -0.93700
Zr16       Zr  0.00807856  0.44987704  0.05171811     2.64700
O17         O  0.51137766  0.39301315  0.05600329    -0.98700
O18         O  0.00583499  0.45296462  0.10873441    -0.80700
O19         O  0.48296148  0.44505413  0.00503014    -0.84100
O20         O  0.03489759  0.44629392  0.00492068    -2.18800
O21         O  0.05025832  0.05522781  0.42921453    -0.67500
O22         O  0.08189149  0.03094871  0.45844593    -0.52000
C23         C  0.07451527  0.05046465  0.43629034     0.71300
O24         O  0.46008206  0.05897129  0.05544953    -0.60400
O25         O  0.43079400  0.02687329  0.03400067    -0.52400
C26         C  0.43640371  0.05003679  0.05131702     0.73100
O27         O  0.04781311  0.06452737  0.05434902    -0.71800
O28         O  0.08044959  0.03476871  0.02971192    -0.50500
C29         C  0.07232225  0.05767170  0.04775672     0.74500
O30         O  0.46232433  0.05607122  0.43358538    -0.67100
O31         O  0.43242789  0.02681070  0.46351541    -0.54300
C32         C  0.43859877  0.04811075  0.44200018     0.72900
Zr33       Zr  0.50729516  0.04077518  0.44772750     2.77500
O34         O  0.50550339  0.09933630  0.44313924    -0.97900
O35         O  0.51008927  0.03651348  0.39080113    -0.78700
Zr36       Zr  0.50547980  0.04359629  0.04133527     2.70100
O37         O  0.00417611  0.10429150  0.02301226    -0.79900
O38         O  0.50513525  0.04786216  0.09822759    -0.99000
Zr39       Zr  0.45619194  0.48904273  0.50045930     2.21500
Zr40       Zr  0.05746355  0.99535226  0.00037821     2.11100
O41         O  0.03112494  0.04437639  0.49333645    -2.47700
O42         O  0.48050712  0.04122205  0.49483399    -0.79700
O43         O  0.03366904  0.99145457  0.45152850    -0.71900
O44         O  0.48029866  0.49812036  0.04535534    -2.32900
O45         O  0.48252115  0.48764520  0.45284574    -2.29100
O46         O  0.03124092  0.00087304  0.04779746    -0.73700
H47         H  0.04705459  0.42808777  0.00676582     0.78300
H48         H  0.46848676  0.49953966  0.06373544     0.79400
H49         H  0.04157998  0.06345834  0.49089063     0.81600
H50         H  0.47176899  0.48615137  0.43482181     0.79200
H51         H  0.50775414  0.48094228  0.10980212     0.42300
H52         H  0.00887898  0.04367930  0.10601298     0.41300
H53         H  0.49460759  0.10995392  0.05307701     0.40900
H54         H  0.01053793  0.10270601  0.42225995     0.38900
H55         H  0.02222822  0.02078865  0.38588919     0.42000
H56         H  0.50136889  0.42261558  0.39481265     0.36800
H57         H  0.49715005  0.37622394  0.47407895     0.42900
H58         H  0.02905863  0.38563726  0.04725130     0.39300
H59         H  0.49129326  0.10598241  0.45848531     0.44200
H60         H  0.02226599  0.45970797  0.39352616     0.43000
H61         H  0.00909729  0.38537100  0.07641315     0.43100
H62         H  0.49002992  0.03488263  0.10623093     0.43400
C63         C  0.15197921  0.12310760  0.35699467     0.86400
C64         C  0.14835500  0.12040506  0.32161945    -0.53900
C65         C  0.16573978  0.13749112  0.30299239     0.09300
C66         C  0.18727017  0.15360296  0.32133983     0.20200
C67         C  0.18079757  0.11048976  0.36074679    -0.54600
C68         C  0.19926666  0.12647014  0.34221254     0.09400
C69         C  0.15308875  0.15932815  0.36283260    -0.54100
C70         C  0.17200941  0.17531937  0.34501012     0.10000
H71         H  0.13324216  0.10628100  0.31182281     0.14500
H72         H  0.20224123  0.16641665  0.30617456     0.00200
H73         H  0.18645904  0.09119504  0.37702454     0.14800
H74         H  0.13971810  0.17128061  0.37961409     0.14600
C75         C  0.15873045  0.36596941  0.37540749     0.86400
C76         C  0.15364877  0.33012861  0.36935055    -0.53900
C77         C  0.17212959  0.31539149  0.34958197     0.09300
C78         C  0.19355501  0.33879547  0.33686098     0.20200
C79         C  0.18712767  0.36702299  0.38590627    -0.54600
C80         C  0.20523300  0.35276506  0.36602716     0.09400
C81         C  0.15960765  0.38082933  0.34187023    -0.54100
C82         C  0.17784491  0.36709391  0.32180945     0.10000
H83         H  0.13699141  0.31720176  0.37952127     0.14500
H84         H  0.20929374  0.32828315  0.32128863     0.00200
H85         H  0.19256707  0.37887835  0.40695545     0.14800
H86         H  0.14499427  0.39831570  0.33352610     0.14600
C87         C  0.15715281  0.38161376  0.13481443     0.86400
C88         C  0.15439307  0.38702488  0.17038787    -0.53900
C89         C  0.16868968  0.36600832  0.18818275     0.09300
C90         C  0.18347284  0.33976623  0.16931489     0.20200
C91         C  0.18729895  0.38049006  0.12704904    -0.54600
C92         C  0.20114481  0.35827911  0.14489343     0.09400
C93         C  0.14877545  0.34630921  0.13212093    -0.54100
C94         C  0.16216745  0.32439789  0.15023013     0.10000
H95         H  0.14165151  0.40477953  0.18150191     0.14500
H96         H  0.19449792  0.32213826  0.18425914     0.00200
H97         H  0.19674850  0.39705651  0.11019615     0.14800
H98         H  0.13413014  0.33892019  0.11615125     0.14600
C99         C  0.14963041  0.13273231  0.11332369     0.86400
C100        C  0.14646619  0.17037560  0.11124986    -0.53900
C101        C  0.16206322  0.18623016  0.13079788     0.09300
C102        C  0.17928250  0.16357188  0.15045349     0.20200
C103        C  0.17967013  0.12728364  0.10686600    -0.54600
C104        C  0.19526947  0.14312085  0.12644592     0.09400
C105        C  0.14477040  0.12444001  0.14862086    -0.54100
C106        C  0.16057020  0.14006710  0.16777287     0.10000
H107        H  0.13421431  0.18411151  0.09528372     0.14500
H108        H  0.19108183  0.17673823  0.16690406     0.00200
H109        H  0.18790080  0.11184573  0.08891975     0.14800
H110        H  0.12999962  0.10765285  0.15762757     0.14600
C111        C  0.35801224  0.11809838  0.37056292     0.86400
C112        C  0.35767721  0.15511074  0.37385407    -0.53900
C113        C  0.34006157  0.17232355  0.35546716     0.09300
C114        C  0.32572050  0.14986178  0.33399593     0.20200
C115        C  0.32899440  0.10823208  0.37512134    -0.54600
C116        C  0.31219465  0.12505342  0.35622871     0.09400
C117        C  0.36474680  0.11477776  0.33505373    -0.54100
C118        C  0.34792695  0.13125912  0.31614533     0.10000
H119        H  0.37110268  0.16662107  0.38879924     0.14500
H120        H  0.31126101  0.16067356  0.31835026     0.00200
H121        H  0.32244083  0.08941254  0.39169285     0.14800
H122        H  0.38165260  0.10140457  0.32517266     0.14600
C123        C  0.35499348  0.11790445  0.12743248     0.86400
C124        C  0.35874285  0.10982474  0.16222888    -0.53900
C125        C  0.34239642  0.12664730  0.18206467     0.09300
C126        C  0.32288474  0.14987160  0.16542136     0.20200
C127        C  0.32536766  0.11117841  0.12360582    -0.54600
C128        C  0.30838140  0.12826400  0.14321112     0.09400
C129        C  0.35629465  0.15453353  0.12311773    -0.54100
C130        C  0.34010141  0.17143768  0.14327370     0.10000
H131        H  0.37389174  0.09306934  0.17060275     0.14500
H132        H  0.31017989  0.16367706  0.18218825     0.00200
H133        H  0.31768926  0.09482936  0.10727224     0.14800
H134        H  0.36992556  0.16620389  0.10620917     0.14600
C135        C  0.36136311  0.36527063  0.13268569     0.86400
C136        C  0.36598420  0.32887181  0.12814338    -0.53900
C137        C  0.35134009  0.30969162  0.14833559     0.09300
C138        C  0.33318642  0.32855882  0.17156168     0.20200
C139        C  0.33130291  0.37083281  0.13074660    -0.54600
C140        C  0.31632334  0.35165557  0.15089540     0.09400
C141        C  0.36681571  0.36903574  0.16789326    -0.54100
C142        C  0.35211287  0.35010292  0.18819232     0.10000
H143        H  0.37934487  0.31887063  0.11025235     0.14500
H144        H  0.32143311  0.31236724  0.18747959     0.00200
H145        H  0.32261409  0.38806651  0.11425924     0.14800
H146        H  0.38153296  0.38461785  0.17651515     0.14600
C147        C  0.36522347  0.36317868  0.37684941     0.86400
C148        C  0.36845058  0.37251684  0.34159338    -0.53900
C149        C  0.35107794  0.35810690  0.32336910     0.09300
C150        C  0.33144815  0.33655632  0.34185243     0.20200
C151        C  0.33563600  0.37212873  0.38509748    -0.54600
C152        C  0.31828304  0.35848346  0.36630255     0.09400
C153        C  0.36601045  0.32616369  0.37867228    -0.54100
C154        C  0.34799986  0.31197834  0.36102812     0.10000
H155        H  0.38405107  0.38768326  0.33173825     0.14500
H156        H  0.31694688  0.32575390  0.32679618     0.00200
H157        H  0.32812312  0.38750197  0.40360285     0.14800
H158        H  0.38005516  0.31260839  0.39256453     0.14600
C159        C  0.34634439  0.38157528  0.23663320    -0.05900
C160        C  0.35372154  0.35219220  0.22292012     0.00000
C161        C  0.36344642  0.32657804  0.24226825    -0.08600
C162        C  0.36277903  0.33011668  0.27491020    -0.05900
C163        C  0.35335055  0.35845916  0.28866999     0.00000
C164        C  0.34544831  0.38500546  0.26942151    -0.08500
C165        C  0.33494189  0.41607349  0.28343928     0.61900
H166        H  0.34076439  0.40170632  0.22140773     0.12600
H167        H  0.36971700  0.31063914  0.29015413     0.12600
C168        C  0.37641403  0.29672312  0.22864232     0.62100
F169        F  0.32819566  0.43883566  0.26054323    -0.23000
F170        F  0.35378802  0.42904605  0.30142505    -0.20400
F171        F  0.31258746  0.40971406  0.30202713    -0.20000
F172        F  0.39590255  0.30595372  0.20687502    -0.20100
F173        F  0.35791552  0.27883123  0.21467860    -0.20400
F174        F  0.38823228  0.27732975  0.25130982    -0.23100
C175        C  0.36738996  0.21917659  0.14780950    -0.05900
C176        C  0.34206447  0.20698724  0.14511787     0.00000
C177        C  0.32040563  0.22877513  0.14155312    -0.08600
C178        C  0.32477668  0.26195699  0.14300089    -0.05900
C179        C  0.35008986  0.27416865  0.14604253     0.00000
C180        C  0.37212810  0.25227663  0.14764302    -0.08500
C181        C  0.40098589  0.26093795  0.14962580     0.61900
H182        H  0.38401260  0.20242314  0.14979431     0.12600
H183        H  0.30826083  0.27891481  0.14118664     0.12600
C184        C  0.29315519  0.21766603  0.13428654     0.62100
F185        F  0.41090867  0.24669568  0.17658205    -0.23000
F186        F  0.40537907  0.29338653  0.15025322    -0.20400
F187        F  0.41516982  0.24892741  0.12386353    -0.20000
F188        F  0.28131730  0.20288609  0.16052318    -0.20100
F189        F  0.29507055  0.19651940  0.10984920    -0.20400
F190        F  0.27693716  0.24325829  0.12523251    -0.23100
C191        C  0.34041579  0.10148487  0.26879360    -0.05900
C192        C  0.34993181  0.12927711  0.28160796     0.00000
C193        C  0.36091662  0.15358953  0.26130301    -0.08600
C194        C  0.35711042  0.15198326  0.22900776    -0.05900
C195        C  0.34557923  0.12532453  0.21632092     0.00000
C196        C  0.33922885  0.09825563  0.23622437    -0.08500
C197        C  0.33162903  0.06541977  0.22521500     0.61900
H198        H  0.33395966  0.08191015  0.28451540     0.12600
H199        H  0.36413265  0.17128303  0.21329294     0.12600
C200        C  0.37848371  0.17998802  0.27164977     0.62100
F201        F  0.35094862  0.04297617  0.23348683    -0.23000
F202        F  0.32888666  0.06420375  0.19320896    -0.20400
F203        F  0.30792029  0.05664337  0.24001589    -0.20000
F204        F  0.40369109  0.17480748  0.25866996    -0.20100
F205        F  0.38018716  0.18080758  0.30383691    -0.20400
F206        F  0.36928034  0.20974484  0.26079336    -0.23100
C207        C  0.34252718  0.22277638  0.38560010    -0.05900
C208        C  0.33690881  0.20876421  0.35697215     0.00000
C209        C  0.32949553  0.23040120  0.33186093    -0.08600
C210        C  0.33627821  0.26293680  0.33330805    -0.05900
C211        C  0.34360415  0.27644219  0.36124359     0.00000
C212        C  0.34382065  0.25629441  0.38878838    -0.08500
C213        C  0.34307770  0.26924332  0.42181602     0.61900
H214        H  0.34482650  0.20737529  0.40631286     0.12600
H215        H  0.33441162  0.27843060  0.31265967     0.12600
C216        C  0.31090017  0.22218541  0.30639708     0.62100
F217        F  0.33080365  0.24791814  0.44304189    -0.23000
F218        F  0.32880129  0.29805259  0.42322186    -0.20400
F219        F  0.36843327  0.27349405  0.43125980    -0.20000
F220        F  0.28834646  0.20885109  0.32026912    -0.20100
F221        F  0.32283729  0.20155277  0.28520731    -0.20400
F222        F  0.30268752  0.24931952  0.28937482    -0.23100
C223        C  0.23378789  0.13602434  0.15900885    -0.05900
C224        C  0.22446808  0.13819751  0.12845401     0.00000
C225        C  0.24302651  0.13555888  0.10251387    -0.08600
C226        C  0.26993387  0.13062393  0.10878166    -0.05900
C227        C  0.27912422  0.12897050  0.13956841     0.00000
C228        C  0.26035766  0.13047710  0.16516779    -0.08500
C229        C  0.26670356  0.12513646  0.19935123     0.61900
H230        H  0.21989966  0.13759789  0.17896688     0.12600
H231        H  0.28420377  0.12940182  0.08912328     0.12600
C232        C  0.23608577  0.13812494  0.06809571     0.62100
F233        F  0.24713423  0.10753022  0.21508899    -0.23000
F234        F  0.26823285  0.15447281  0.21348831    -0.20400
F235        F  0.28987667  0.10787234  0.20248766    -0.20000
F236        F  0.21311005  0.15573625  0.06330364    -0.20100
F237        F  0.23353580  0.10752756  0.05697075    -0.20400
F238        F  0.25594326  0.15330195  0.05031892    -0.23100
C239        C  0.18417622  0.27271641  0.13880676    -0.05900
C240        C  0.16033448  0.28891624  0.14659361     0.00000
C241        C  0.13647733  0.27132040  0.14774399    -0.08600
C242        C  0.13794236  0.23807090  0.14174971    -0.05900
C243        C  0.16195605  0.22203669  0.13393740     0.00000
C244        C  0.18534592  0.24014782  0.13106285    -0.08500
C245        C  0.21122087  0.22655737  0.11732075     0.61900
H246        H  0.20218605  0.28620105  0.13766682     0.12600
H247        H  0.12004324  0.22427411  0.14366688     0.12600
C248        C  0.10901865  0.28520455  0.15569162     0.62100
F249        F  0.20650095  0.20798018  0.09207239    -0.23000
F250        F  0.22418860  0.20845911  0.13982290    -0.20400
F251        F  0.22774455  0.25079807  0.10632795    -0.20000
F252        F  0.09358364  0.28267399  0.12997077    -0.20100
F253        F  0.10866401  0.31698290  0.16389615    -0.20400
F254        F  0.09767904  0.26767232  0.18071151    -0.23100
C255        C  0.24227172  0.35788484  0.17390830    -0.05900
C256        C  0.23072229  0.35516455  0.14490450     0.00000
C257        C  0.24735486  0.34842348  0.11809255    -0.08600
C258        C  0.27508342  0.34669763  0.12131968    -0.05900
C259        C  0.28666081  0.35151325  0.15025474     0.00000
C260        C  0.26977233  0.35736507  0.17708283    -0.08500
C261        C  0.28022309  0.36595386  0.20846744     0.61900
H262        H  0.22939920  0.36117079  0.19436922     0.12600
H263        H  0.28806384  0.34201230  0.10098480     0.12600
C264        C  0.23615651  0.34228431  0.08642673     0.62100
F265        F  0.26016965  0.37494786  0.22973035    -0.23000
F266        F  0.29675321  0.39166350  0.20393387    -0.20400
F267        F  0.29353962  0.34006123  0.22191373    -0.20000
F268        F  0.22755681  0.37099900  0.07271321    -0.20100
F269        F  0.21522161  0.32163995  0.08995878    -0.20400
F270        F  0.25495613  0.32834079  0.06614637    -0.23100
C271        C  0.15210436  0.35918922  0.27559997    -0.05900
C272        C  0.17494559  0.37115298  0.28768471     0.00000
C273        C  0.19372915  0.38656189  0.26746712    -0.08600
C274        C  0.19057839  0.38564461  0.23481712    -0.05900
C275        C  0.16970291  0.36894867  0.22261531     0.00000
C276        C  0.14946165  0.35689438  0.24322962    -0.08500
C277        C  0.12582899  0.34034123  0.23123372     0.61900
H278        H  0.13699417  0.34982995  0.29195046     0.12600
H279        H  0.20433304  0.39788376  0.21871720     0.12600
C280        C  0.21608872  0.40468897  0.28068294     0.62100
F281        F  0.10796637  0.33152114  0.25531465    -0.23000
F282        F  0.13449558  0.31281082  0.21619200    -0.20400
F283        F  0.11267066  0.36070626  0.21060147    -0.20000
F284        F  0.23303122  0.38331179  0.29574028    -0.20100
F285        F  0.20589389  0.42667632  0.30204910    -0.20400
F286        F  0.23039924  0.42146609  0.25739779    -0.23100
C287        C  0.24545245  0.38468270  0.36868930    -0.05900
C288        C  0.23395256  0.35432972  0.37032312     0.00000
C289        C  0.24992023  0.32648942  0.37542911    -0.08600
C290        C  0.27731298  0.32973258  0.37567125    -0.05900
C291        C  0.28919063  0.35975414  0.37126985     0.00000
C292        C  0.27297447  0.38813257  0.36885718    -0.08500
C293        C  0.28276161  0.42239291  0.36563219     0.61900
H294        H  0.23278224  0.40594226  0.36585120     0.12600
H295        H  0.28986154  0.30837145  0.37819361     0.12600
C296        C  0.23831550  0.29344666  0.38059273     0.62100
F297        F  0.27217798  0.43757775  0.33951282    -0.23000
F298        F  0.30983611  0.42445501  0.36239364    -0.20400
F299        F  0.27420612  0.43896837  0.39199393    -0.20000
F300        F  0.23061333  0.28229806  0.35232705    -0.20100
F301        F  0.21685716  0.29509275  0.40174130    -0.20400
F302        F  0.25644617  0.27143722  0.39275491    -0.23100
C303        C  0.17338756  0.11224274  0.25173657    -0.05900
C304        C  0.16357431  0.13895508  0.26832294     0.00000
C305        C  0.14893915  0.16339264  0.25202539    -0.08600
C306        C  0.14830213  0.16244467  0.21916834    -0.05900
C307        C  0.15943834  0.13664862  0.20249940     0.00000
C308        C  0.17112173  0.11024705  0.21906107    -0.08500
C309        C  0.17968996  0.07937333  0.20299709     0.61900
H310        H  0.18196153  0.09223627  0.26491495     0.12600
H311        H  0.13842952  0.18187597  0.20629782     0.12600
C312        C  0.13193664  0.18956238  0.26742369     0.62100
F313        F  0.19268975  0.05810137  0.22306724    -0.23000
F314        F  0.19654363  0.08565087  0.17735071    -0.20400
F315        F  0.15757519  0.06448870  0.19321192    -0.20000
F316        F  0.13876929  0.21927845  0.25455284    -0.20100
F317        F  0.13403852  0.19029197  0.29943061    -0.20400
F318        F  0.10576196  0.18452816  0.26157941    -0.23100
C319        C  0.23818385  0.13321199  0.37454609    -0.05900
C320        C  0.22822183  0.12226882  0.34669829     0.00000
C321        C  0.24587762  0.10817111  0.32406808    -0.08600
C322        C  0.27320223  0.10794740  0.32887187    -0.05900
C323        C  0.28322200  0.12037983  0.35599033     0.00000
C324        C  0.26547633  0.13240606  0.37971830    -0.08500
C325        C  0.27528609  0.14460829  0.41017490     0.61900
H326        H  0.22436356  0.14286462  0.39210395     0.12600
H327        H  0.28709552  0.09891761  0.31096790     0.12600
C328        C  0.23592166  0.09367006  0.29492581     0.62100
F329        F  0.25491203  0.15739398  0.42904031    -0.23000
F330        F  0.29347618  0.16841977  0.40394032    -0.20400
F331        F  0.28701049  0.11937223  0.42676297    -0.20000
F332        F  0.22578494  0.11794546  0.27582714    -0.20100
F333        F  0.21646797  0.07189912  0.30332637    -0.20400
F334        F  0.25585108  0.07751092  0.27802884    -0.23100
C335        C  0.17865469  0.22883905  0.31869163    -0.05900
C336        C  0.17602441  0.21074973  0.34695682     0.00000
C337        C  0.17443666  0.22723275  0.37564198    -0.08600
C338        C  0.17202782  0.26096374  0.37469792    -0.05900
C339        C  0.17344198  0.27936743  0.34642456     0.00000
C340        C  0.17693137  0.26281538  0.31757851    -0.08500
C341        C  0.17487110  0.27948814  0.28551879     0.61900
H342        H  0.18015177  0.21593678  0.29702566     0.12600
H343        H  0.16987831  0.27325845  0.39676380     0.12600
C344        C  0.17632091  0.21083465  0.40785620     0.62100
F345        F  0.17873048  0.25836768  0.26116592    -0.23000
F346        F  0.19345615  0.30278562  0.28045369    -0.20400
F347        F  0.14980327  0.29280895  0.28365675    -0.20000
F348        F  0.18614418  0.17959892  0.40643510    -0.20100
F349        F  0.15160456  0.21089527  0.42299480    -0.20400
F350        F  0.19328641  0.22750086  0.42562156    -0.23100
C351        C  0.08742234  0.08302121  0.38834718    -0.05900
C352        C  0.09481202  0.06934527  0.41737829     0.00000
C353        C  0.11967934  0.07761277  0.42864723    -0.08600
C354        C  0.13748542  0.09468159  0.40830513    -0.05900
C355        C  0.13060468  0.10663006  0.37833827     0.00000
C356        C  0.10358144  0.10440420  0.37061092    -0.08500
C357        C  0.08950544  0.12575726  0.34652602     0.61900
H358        H  0.06777433  0.07909044  0.38039568     0.12600
H359        H  0.15672448  0.09997316  0.41645930     0.12600
C360        C  0.12677243  0.07119340  0.46260758     0.62100
F361        F  0.08441096  0.10811995  0.32059520    -0.23000
F362        F  0.10340909  0.15265023  0.33707036    -0.20400
F363        F  0.06562824  0.13695073  0.35966770    -0.20000
F364        F  0.13060575  0.03858236  0.46855405    -0.20100
F365        F  0.10665239  0.08302532  0.48239609    -0.20400
F366        F  0.14970657  0.08629490  0.46962957    -0.23100
C367        C  0.10561485  0.44500802  0.10614116    -0.05900
C368        C  0.09926021  0.43138082  0.07792455     0.00000
C369        C  0.11580414  0.40664055  0.06531428    -0.08600
C370        C  0.13664247  0.39407796  0.08307312    -0.05900
C371        C  0.14114813  0.40484112  0.11334726     0.00000
C372        C  0.12755750  0.43377524  0.12291686    -0.08500
C373        C  0.13748464  0.45639985  0.14685046     0.61900
H374        H  0.09430019  0.46597052  0.11409377     0.12600
H375        H  0.14871032  0.37418955  0.07419001     0.12600
C376        C  0.11099012  0.39291817  0.03359996     0.62100
F377        F  0.13606030  0.48773078  0.13516900    -0.23000
F378        F  0.16364077  0.44985784  0.15327825    -0.20400
F379        F  0.12172885  0.45487522  0.17419517    -0.20000
F380        F  0.11521323  0.41866584  0.50990561    -0.20100
F381        F  0.08542996  0.38211735  0.03325411    -0.20400
F382        F  0.12811938  0.36733540  0.02690192    -0.23100
C383        C  0.36890670  0.08177735  0.08235171    -0.05900
C384        C  0.37632207  0.10139839  0.10671708     0.00000
C385        C  0.40396982  0.10506966  0.11112238    -0.08600
C386        C  0.42211544  0.08775574  0.09225193    -0.05900
C387        C  0.41464144  0.06737322  0.06882116     0.00000
C388        C  0.38733553  0.06428435  0.06359759    -0.08500
C389        C  0.37711423  0.04263601  0.03882022     0.61900
H390        H  0.34848079  0.07981412  0.07752246     0.12600
H391        H  0.44289805  0.09014550  0.09651190     0.12600
C392        C  0.41703762  0.12559297  0.13508477     0.62100
F393        F  0.35064745  0.05664414  0.52624139    -0.23000
F394        F  0.37951663  0.01616583  0.53512413    -0.20400
F395        F  0.39139693  0.05909665  0.50438149    -0.20000
F396        F  0.43071091  0.10533716  0.15540892    -0.20100
F397        F  0.40047908  0.14496802  0.15305918    -0.20400
F398        F  0.43494500  0.14561554  0.11932598    -0.23100
C399        C  0.10912867  0.12785145  0.08010015    -0.05900
C400        C  0.13153487  0.11251527  0.09319374     0.00000
C401        C  0.13420283  0.07808237  0.09016198    -0.08600
C402        C  0.11473939  0.06168588  0.07452078    -0.05900
C403        C  0.09250641  0.07739889  0.06232548     0.00000
C404        C  0.09002638  0.11127973  0.06438697    -0.08500
C405        C  0.06738523  0.13036709  0.04982212     0.61900
H406        H  0.10526223  0.15302297  0.08336144     0.12600
H407        H  0.11663445  0.03588524  0.07183913     0.12600
C408        C  0.15760913  0.05746920  0.10125356     0.62100
F409        F  0.07146760  0.16319566  0.04923623    -0.23000
F410        F  0.04411515  0.12480739  0.06707256    -0.20400
F411        F  0.06486127  0.12139549  0.01912148    -0.20000
F412        F  0.16566234  0.06636394  0.13005126    -0.20100
F413        F  0.17840916  0.05953188  0.07925535    -0.20400
F414        F  0.15132921  0.02532824  0.10452157    -0.23100
C415        C  0.43123542  0.39365621  0.40678054    -0.05900
C416        C  0.42235050  0.41203456  0.43251228     0.00000
C417        C  0.39499249  0.41195205  0.44153995    -0.08600
C418        C  0.37812109  0.39354620  0.42449717    -0.05900
C419        C  0.38637422  0.37754955  0.39690388     0.00000
C420        C  0.41419623  0.37591541  0.38914502    -0.08500
C421        C  0.42814764  0.35643766  0.36315747     0.61900
H422        H  0.45211356  0.39313819  0.39995473     0.12600
H423        H  0.35817357  0.39156720  0.43354092     0.12600
C424        C  0.38287972  0.43142206  0.46854225     0.62100
F425        F  0.43936642  0.37741417  0.34082486    -0.23000
F426        F  0.41235685  0.33597743  0.34812272    -0.20400
F427        F  0.44814689  0.33760546  0.37596019    -0.20000
F428        F  0.35628827  0.42562126  0.47434256    -0.20100
F429        F  0.38507760  0.46395378  0.46135202    -0.20400
F430        F  0.39552945  0.42365280  0.49583196    -0.23100
C431        C  0.38895059  0.06987767  0.38031063    -0.05900
C432        C  0.37652238  0.09819115  0.39217575     0.00000
C433        C  0.38177837  0.10607960  0.42371772    -0.08600
C434        C  0.40313669  0.09033472  0.43845855    -0.05900
C435        C  0.41687483  0.06418871  0.42497417     0.00000
C436        C  0.40912884  0.05298041  0.39600535    -0.08500
C437        C  0.42243984  0.02335356  0.38171506     0.61900
H438        H  0.38274453  0.06062170  0.35851766     0.12600
H439        H  0.40860825  0.09790224  0.46134353     0.12600
C440        C  0.36506459  0.12895711  0.44403874     0.62100
F441        F  0.41162851  0.01570742  0.35372384    -0.23000
F442        F  0.41899797  0.49258782  0.40099423    -0.20400
F443        F  0.44900755  0.02880265  0.37572751    -0.20000
F444        F  0.34079584  0.13666197  0.43211175    -0.20100
F445        F  0.37867612  0.15687009  0.44774076    -0.20400
F446        F  0.36011958  0.11458235  0.47340768    -0.23100
C447        C  0.13696850  0.41792357  0.39273209    -0.05900
C448        C  0.13965885  0.38423818  0.39800296     0.00000
C449        C  0.12559116  0.37027356  0.42461672    -0.08600
C450        C  0.10550119  0.38882802  0.43978428    -0.05900
C451        C  0.10123180  0.42143452  0.43187879     0.00000
C452        C  0.11752867  0.43660865  0.40853388    -0.08500
C453        C  0.11365145  0.47199252  0.39933059     0.61900
H454        H  0.15001930  0.42975162  0.37550593     0.12600
H455        H  0.09340952  0.37802623  0.45874959     0.12600
C456        C  0.13195753  0.33741380  0.43951037     0.62100
F457        F  0.13053514  0.48138044  0.37444124    -0.23000
F458        F  0.11850994  0.49069842  0.42450870    -0.20400
F459        F  0.08798982  0.47780117  0.39045545    -0.20000
F460        F  0.12875253  0.33849643  0.47186004    -0.20100
F461        F  0.15782370  0.32755066  0.43304319    -0.20400
F462        F  0.11485964  0.31495251  0.42941326    -0.23100
C463        C  0.40749633  0.39607392  0.06380170    -0.05900
C464        C  0.41827189  0.42269671  0.07726255     0.00000
C465        C  0.40708721  0.43413916  0.10579470    -0.08600
C466        C  0.38680882  0.41657519  0.12143308    -0.05900
C467        C  0.37783959  0.38740657  0.10993903     0.00000
C468        C  0.38629127  0.37942548  0.07855567    -0.08500
C469        C  0.37316883  0.35554910  0.05829510     0.61900
H470        H  0.41522130  0.38880645  0.04087056     0.12600
H471        H  0.37809364  0.42556413  0.14314584     0.12600
C472        C  0.41681571  0.46463763  0.11964905     0.62100
F473        F  0.36841078  0.37000323  0.02931229    -0.23000
F474        F  0.34912154  0.34540049  0.07087094    -0.20400
F475        F  0.38995585  0.32916275  0.05356016    -0.20000
F476        F  0.41400267  0.49019703  0.09836883    -0.20100
F477        F  0.44319023  0.46059439  0.12623836    -0.20400
F478        F  0.40285467  0.47229532  0.14720923    -0.23100
O479        O  0.46562168  0.42428250  0.94421279    -0.73800
O480        O  0.43368296  0.45588742  0.96732178    -0.54300
C481        C  0.44117561  0.43278000  0.94947508     0.78300
O482        O  0.05285332  0.43820704  0.56864456    -0.60000
O483        O  0.08309862  0.46426793  0.53627287    -0.53100
C484        C  0.07671194  0.44519083  0.55951972     0.70300
O485        O  0.46316403  0.42759437  0.56647050    -0.74600
O486        O  0.43213129  0.45301920  0.53651030    -0.55100
C487        C  0.43910378  0.43321749  0.55858701     0.76300
O488        O  0.05559641  0.42620900  0.94418446    -0.59700
O489        O  0.08463142  0.45791792  0.96769174    -0.52800
C490        C  0.07904196  0.43496398  0.94971098     0.72900
Zr491      Zr  0.01025384  0.44198384  0.95905728     2.54700
O492        O  0.01384992  0.38376484  0.96669024    -0.80300
O493        O  0.01066167  0.43749063  0.90215985    -0.93700
Zr494      Zr  0.00794434  0.44957852  0.55101216     2.64700
O495        O  0.51320867  0.38832389  0.55756084    -0.98700
O496        O  0.00391379  0.45184778  0.60805563    -0.80700
O497        O  0.48345642  0.44164599  0.50471828    -0.84100
O498        O  0.03491431  0.44739403  0.50414659    -2.18800
O499        O  0.05096417  0.05026086  0.92977557    -0.67500
O500        O  0.08190735  0.02694289  0.96065451    -0.52000
C501        C  0.07512564  0.04526266  0.93738860     0.71300
O502        O  0.45896383  0.05704805  0.55317783    -0.60400
O503        O  0.42998963  0.02449481  0.53152292    -0.52400
C504        C  0.43540898  0.04759735  0.54910849     0.73100
O505        O  0.04835793  0.06636300  0.55187739    -0.71800
O506        O  0.08078844  0.03645164  0.52705616    -0.50500
C507        C  0.07280297  0.05958406  0.54490857     0.74500
O508        O  0.46263761  0.05270109  0.93420825    -0.67100
O509        O  0.43234114  0.02638883  0.96624036    -0.54300
C510        C  0.43884399  0.04613799  0.94349575     0.72900
Zr511      Zr  0.50716718  0.03683692  0.94869915     2.77500
O512        O  0.50626292  0.09526499  0.94169781    -0.97900
O513        O  0.50970079  0.02850312  0.89234812    -0.78700
Zr514      Zr  0.50495420  0.04300050  0.54084125     2.70100
O515        O  0.00076311  0.10462954  0.53683014    -0.79900
O516        O  0.50286328  0.03914597  0.59803241    -0.99000
Zr517      Zr  0.45646950  0.49273388  0.99886294     2.21500
Zr518      Zr  0.05826481  0.99701146  0.49743123     2.11100
O519        O  0.03097678  0.04300229  0.99291412    -2.47700
O520        O  0.48064752  0.04032565  0.99584134    -0.79700
O521        O  0.03317490  0.98818435  0.95458825    -0.71900
O522        O  0.47984462  0.49302810  0.54736547    -2.32900
O523        O  0.48240890  0.48889157  0.95112766    -2.29100
O524        O  0.03285822  0.99974270  0.54576095    -0.73700
H525        H  0.04713469  0.42919832  0.50554326     0.78300
H526        H  0.46789940  0.49356595  0.56567077     0.79400
H527        H  0.04173760  0.06178283  0.98991876     0.81600
H528        H  0.47145904  0.48696575  0.93333479     0.79200
H529        H  0.51042688  0.43421599  0.61679206     0.42300
H530        H  0.99099785  0.03219376  0.60537781     0.41300
H531        H  0.49268963  0.10671550  0.56080601     0.40900
H532        H  0.02066639  0.10132674  0.94312876     0.38900
H533        H  0.99809136  0.03854471  0.88205929     0.42000
H534        H  0.51742986  0.41035247  0.89958385     0.36800
H535        H  0.52181101  0.37469524  0.95422854     0.42900
H536        H  0.00720419  0.38423296  0.57327940     0.39300
H537        H  0.49355261  0.10297335  0.95831234     0.44200
H538        H  0.99439598  0.44909637  0.89562230     0.43000
H539        H  0.00056649  0.38374646  0.53772914     0.43100
H540        H  0.50767988  0.06074922  0.60468023     0.43400
C541        C  0.15398843  0.11504356  0.85681687     0.86400
C542        C  0.15103591  0.11269343  0.82126306    -0.53900
C543        C  0.16798467  0.13091956  0.80318498     0.09300
C544        C  0.18875694  0.14757797  0.82230992     0.20200
C545        C  0.18305999  0.10348447  0.86083148    -0.54600
C546        C  0.20121151  0.12058156  0.84283594     0.09400
C547        C  0.15412402  0.15125430  0.86345584    -0.54100
C548        C  0.17285386  0.16826127  0.84632687     0.10000
H549        H  0.13672994  0.09786322  0.81089198     0.14500
H550        H  0.20354422  0.16126641  0.80771401     0.00200
H551        H  0.18911211  0.08407118  0.87676152     0.14800
H552        H  0.14037867  0.16240936  0.88037819     0.14600
C553        C  0.15733413  0.35954265  0.87702970     0.86400
C554        C  0.15239872  0.32346680  0.87139661    -0.53900
C555        C  0.17077988  0.30867913  0.85136627     0.09300
C556        C  0.19190105  0.33227887  0.83816746     0.20200
C557        C  0.18586830  0.36075018  0.88704454    -0.54600
C558        C  0.20384569  0.34635890  0.86706473     0.09400
C559        C  0.15778418  0.37405732  0.84337544    -0.54100
C560        C  0.17585256  0.36033995  0.82313085     0.10000
H561        H  0.13599737  0.31045626  0.88214414     0.14500
H562        H  0.20772131  0.32213088  0.82256070     0.00200
H563        H  0.19148764  0.37277410  0.90792152     0.14800
H564        H  0.14295636  0.39133165  0.83515154     0.14600
C565        C  0.15420113  0.37926151  0.63620470     0.86400
C566        C  0.14970661  0.38284084  0.67199838    -0.53900
C567        C  0.16421061  0.36177056  0.68964501     0.09300
C568        C  0.18081812  0.33741667  0.67035976     0.20200
C569        C  0.18448282  0.38020785  0.63018051    -0.54600
C570        C  0.19854583  0.35801672  0.64771755     0.09400
C571        C  0.14736337  0.34375750  0.63149319    -0.54100
C572        C  0.16082529  0.32192307  0.64956982     0.10000
H573        H  0.13605287  0.39968985  0.68312015     0.14500
H574        H  0.19200578  0.31970161  0.68503617     0.00200
H575        H  0.19376258  0.39792330  0.61442251     0.14800
H576        H  0.13334648  0.33626324  0.61478871     0.14600
C577        C  0.15072793  0.13076911  0.61297569     0.86400
C578        C  0.14729975  0.16826777  0.61142962    -0.53900
C579        C  0.16242377  0.18396478  0.63149361     0.09300
C580        C  0.17975289  0.16135283  0.65102737     0.20200
C581        C  0.18080104  0.12593212  0.60678359    -0.54600
C582        C  0.19607795  0.14155615  0.62679652     0.09400
C583        C  0.14583441  0.12147381  0.64809183    -0.54100
C584        C  0.16117029  0.13726512  0.66777845     0.10000
H585        H  0.13525906  0.18187620  0.59506276     0.14500
H586        H  0.19143539  0.17445581  0.66768883     0.00200
H587        H  0.18946969  0.11124054  0.58868293     0.14800
H588        H  0.13144722  0.10397011  0.65655483     0.14600
C589        C  0.35954266  0.11611804  0.87091351     0.86400
C590        C  0.36026839  0.15309658  0.87356752    -0.53900
C591        C  0.34283149  0.17066469  0.85524743     0.09300
C592        C  0.32746171  0.14836956  0.83450248     0.20200
C593        C  0.33040272  0.10730723  0.87620143    -0.54600
C594        C  0.31370754  0.12442176  0.85749736     0.09400
C595        C  0.36565390  0.11196356  0.83536338    -0.54100
C596        C  0.34887928  0.12844086  0.81651903     0.10000
H597        H  0.37398871  0.16422422  0.88846174     0.14500
H598        H  0.31294142  0.15962925  0.81910382     0.00200
H599        H  0.32375405  0.08850437  0.89273776     0.14800
H600        H  0.38227861  0.09839448  0.82513306     0.14600
C601        C  0.35531121  0.11454219  0.62772476     0.86400
C602        C  0.35914133  0.10542165  0.66234187    -0.53900
C603        C  0.34301454  0.12185746  0.68270074     0.09300
C604        C  0.32336377  0.14549607  0.66673890     0.20200
C605        C  0.32577398  0.10781235  0.62394286    -0.54600
C606        C  0.30881671  0.12431002  0.64409261     0.09400
C607        C  0.35665117  0.15130735  0.62443544    -0.54100
C608        C  0.34044516  0.16780687  0.64496898     0.10000
H609        H  0.37405418  0.08815078  0.67028636     0.14500
H610        H  0.31059256  0.15855979  0.68407551     0.00200
H611        H  0.31831883  0.09152214  0.60734253     0.14800
H612        H  0.37004935  0.16332916  0.60750925     0.14600
C613        C  0.35903307  0.36314859  0.63417848     0.86400
C614        C  0.36221816  0.32689411  0.62771153    -0.53900
C615        C  0.34793540  0.30739550  0.64812630     0.09300
C616        C  0.33083802  0.32598572  0.67271067     0.20200
C617        C  0.32907185  0.37033684  0.63401067    -0.54600
C618        C  0.31402074  0.35073676  0.65366485     0.09400
C619        C  0.36573521  0.36481295  0.66927404    -0.54100
C620        C  0.35095388  0.34583031  0.68941060     0.10000
H621        H  0.37487041  0.31733923  0.60881484     0.14500
H622        H  0.31901327  0.30975622  0.68850967     0.00200
H623        H  0.32042592  0.38877710  0.61872312     0.14800
H624        H  0.38108090  0.37923287  0.67816909     0.14600
C625        C  0.36338636  0.36418810  0.87793275     0.86400
C626        C  0.36534378  0.37310124  0.84243272    -0.53900
C627        C  0.34864458  0.35670271  0.82484578     0.09300
C628        C  0.33049246  0.33410053  0.84435831     0.20200
C629        C  0.33361767  0.37076506  0.88697621    -0.54600
C630        C  0.31668273  0.35521539  0.86912204     0.09400
C631        C  0.36615011  0.32708247  0.88016347    -0.54100
C632        C  0.34863712  0.31107276  0.86316138     0.10000
H633        H  0.37996687  0.38927737  0.83192307     0.14500
H634        H  0.31623739  0.32206358  0.82989909     0.00200
H635        H  0.32576830  0.38514975  0.90588577     0.14800
H636        H  0.38127999  0.31498607  0.89355977     0.14600
C637        C  0.34466512  0.37772407  0.73725617    -0.05900
C638        C  0.35242040  0.34821281  0.72415116     0.00000
C639        C  0.36168565  0.32286395  0.74412963    -0.08600
C640        C  0.36133657  0.32754606  0.77672549    -0.05900
C641        C  0.35089938  0.35584189  0.78996453     0.00000
C642        C  0.34230791  0.38144539  0.76995927    -0.08500
C643        C  0.32838464  0.41116682  0.78285587     0.61900
H644        H  0.33920660  0.39750208  0.72154492     0.12600
H645        H  0.36928903  0.30904776  0.79230382     0.12600
C646        C  0.37341630  0.29189826  0.73121345     0.62100
F647        F  0.32275469  0.43376996  0.75936306    -0.23000
F648        F  0.34383131  0.42558223  0.80402584    -0.20400
F649        F  0.30477849  0.40209660  0.79756267    -0.20000
F650        F  0.39484533  0.29903953  0.71135176    -0.20100
F651        F  0.35480897  0.27626697  0.71511134    -0.20400
F652        F  0.38206328  0.27100119  0.75475565    -0.23100
C653        C  0.36665782  0.21722893  0.64745857    -0.05900
C654        C  0.34156337  0.20370961  0.64657425     0.00000
C655        C  0.31916289  0.22467300  0.64415546    -0.08600
C656        C  0.32257418  0.25812220  0.64530478    -0.05900
C657        C  0.34757337  0.27160888  0.64657976     0.00000
C658        C  0.37032263  0.25069868  0.64707459    -0.08500
C659        C  0.39889160  0.26117903  0.64709766     0.61900
H660        H  0.38388610  0.20124229  0.64830986     0.12600
H661        H  0.30551090  0.27434550  0.64433800     0.12600
C662        C  0.29209862  0.21251485  0.63759496     0.62100
F663        F  0.41175785  0.24456624  0.67083739    -0.23000
F664        F  0.40175902  0.29349515  0.65167567    -0.20400
F665        F  0.41138770  0.25371977  0.61861191    -0.20000
F666        F  0.28120729  0.19683765  0.66388226    -0.20100
F667        F  0.29422017  0.19194094  0.61272167    -0.20400
F668        F  0.27489614  0.23746854  0.62944895    -0.23100
C669        C  0.33917710  0.09839971  0.76978079    -0.05900
C670        C  0.35062980  0.12536293  0.78203169     0.00000
C671        C  0.36453121  0.14694236  0.76127248    -0.08600
C672        C  0.36079331  0.14517985  0.72898927    -0.05900
C673        C  0.34680427  0.12014614  0.71685102     0.00000
C674        C  0.33849199  0.09427921  0.73725088    -0.08500
C675        C  0.32994497  0.06165294  0.72669040     0.61900
H676        H  0.33124256  0.07995858  0.78585285     0.12600
H677        H  0.36963972  0.16301162  0.71289990     0.12600
C678        C  0.38472191  0.17053532  0.77122984     0.62100
F679        F  0.34807948  0.03835646  0.73636723    -0.23000
F680        F  0.32830621  0.05988105  0.69453823    -0.20400
F681        F  0.30550302  0.05451207  0.74056320    -0.20000
F682        F  0.40938423  0.16091466  0.75918900    -0.20100
F683        F  0.38600817  0.17223516  0.80342102    -0.20400
F684        F  0.37893192  0.20102559  0.75906561    -0.23100
C685        C  0.34556014  0.22073902  0.88586971    -0.05900
C686        C  0.34019761  0.20717303  0.85690711     0.00000
C687        C  0.33386438  0.22911079  0.83159602    -0.08600
C688        C  0.33935621  0.26188964  0.83441481    -0.05900
C689        C  0.34623460  0.27506884  0.86272342     0.00000
C690        C  0.34730920  0.25417951  0.88971838    -0.08500
C691        C  0.34892928  0.26623173  0.92289424     0.61900
H692        H  0.34780111  0.20486750  0.90624478     0.12600
H693        H  0.33706009  0.27790737  0.81433592     0.12600
C694        C  0.31887755  0.22033034  0.80304797     0.62100
F695        F  0.33969031  0.24363606  0.94503500    -0.23000
F696        F  0.33355098  0.29394627  0.92679417    -0.20400
F697        F  0.37486383  0.27207177  0.92906219    -0.20000
F698        F  0.29414148  0.20970319  0.81289081    -0.20100
F699        F  0.33242666  0.19723742  0.78611893    -0.20400
F700        F  0.31489724  0.24636367  0.78252326    -0.23100
C701        C  0.23426500  0.13328118  0.65960642    -0.05900
C702        C  0.22520847  0.13652257  0.62899410     0.00000
C703        C  0.24385870  0.13369882  0.60314993    -0.08600
C704        C  0.27060858  0.12794621  0.60956644    -0.05900
C705        C  0.27957223  0.12519845  0.64038524     0.00000
C706        C  0.26058932  0.12611900  0.66581209    -0.08500
C707        C  0.26586061  0.11732405  0.69967553     0.61900
H708        H  0.22027766  0.13442768  0.67953733     0.12600
H709        H  0.28496628  0.12687485  0.58998567     0.12600
C710        C  0.23730099  0.13641733  0.56862590     0.62100
F711        F  0.24827877  0.09421669  0.71074557    -0.23000
F712        F  0.26248428  0.14424667  0.71781657    -0.20400
F713        F  0.29068418  0.10456889  0.70309044    -0.20000
F714        F  0.21426274  0.15370516  0.56342649    -0.20100
F715        F  0.23526140  0.10580961  0.55730612    -0.20400
F716        F  0.25721004  0.15197997  0.55131278    -0.23100
C717        C  0.18326739  0.27120197  0.63615605    -0.05900
C718        C  0.15948852  0.28658818  0.64564856     0.00000
C719        C  0.13606987  0.26823750  0.64904905    -0.08600
C720        C  0.13800986  0.23488708  0.64402426    -0.05900
C721        C  0.16194571  0.21961049  0.63467675     0.00000
C722        C  0.18476914  0.23838946  0.62941767    -0.08500
C723        C  0.21024496  0.22484019  0.61467474     0.61900
H724        H  0.20082549  0.28547131  0.63314456     0.12600
H725        H  0.12053609  0.22046756  0.64761226     0.12600
C726        C  0.10863157  0.28139962  0.65826606     0.62100
F727        F  0.20466316  0.20668454  0.58941990    -0.23000
F728        F  0.22352231  0.20622285  0.63652182    -0.20400
F729        F  0.22680296  0.24898262  0.60349768    -0.20000
F730        F  0.09180056  0.27583793  0.63446852    -0.20100
F731        F  0.10765705  0.31388942  0.66368522    -0.20400
F732        F  0.09934639  0.26543023  0.68538920    -0.23100
C733        C  0.23978442  0.35672366  0.67712489    -0.05900
C734        C  0.22821613  0.35562778  0.64789184     0.00000
C735        C  0.24499032  0.35121195  0.62064888    -0.08600
C736        C  0.27267053  0.34881631  0.62391808    -0.05900
C737        C  0.28427241  0.35133596  0.65316352     0.00000
C738        C  0.26737553  0.35601318  0.68024135    -0.08500
C739        C  0.27801610  0.36345264  0.71181465     0.61900
H740        H  0.22690272  0.35906898  0.69778094     0.12600
H741        H  0.28564662  0.34557469  0.60329254     0.12600
C742        C  0.23415131  0.34894099  0.58815582     0.62100
F743        F  0.25809602  0.37166972  0.73357251    -0.23000
F744        F  0.29442226  0.38933643  0.70793260    -0.20400
F745        F  0.29159308  0.33717411  0.72417815    -0.20000
F746        F  0.22721189  0.37937175  0.57683911    -0.20100
F747        F  0.21227864  0.32969244  0.58914278    -0.20400
F748        F  0.25274243  0.33574314  0.56714009    -0.23100
C749        C  0.15011058  0.35008935  0.77734459    -0.05900
C750        C  0.17229191  0.36411228  0.78904669     0.00000
C751        C  0.18945954  0.38189297  0.76861724    -0.08600
C752        C  0.18546389  0.38180563  0.73613896    -0.05900
C753        C  0.16526081  0.36395439  0.72413252     0.00000
C754        C  0.14663087  0.34890784  0.74499999    -0.08500
C755        C  0.12386014  0.33068643  0.73316222     0.61900
H756        H  0.13611938  0.33875916  0.79389544     0.12600
H757        H  0.19819306  0.39542272  0.71987543     0.12600
C758        C  0.21114756  0.40144905  0.78134957     0.62100
F759        F  0.10768631  0.31834077  0.75744534    -0.23000
F760        F  0.13389912  0.30527712  0.71585922    -0.20400
F761        F  0.10857381  0.35096979  0.71465711    -0.20000
F762        F  0.22912047  0.38116740  0.79607382    -0.20100
F763        F  0.20028170  0.42286742  0.80284414    -0.20400
F764        F  0.22446916  0.41898587  0.75774658    -0.23100
C765        C  0.24362278  0.37879243  0.87074253    -0.05900
C766        C  0.23265401  0.34812546  0.87102072     0.00000
C767        C  0.24907355  0.32043587  0.87548786    -0.08600
C768        C  0.27634120  0.32439436  0.87687603    -0.05900
C769        C  0.28758580  0.35487881  0.87449718     0.00000
C770        C  0.27094719  0.38284192  0.87299418    -0.08500
C771        C  0.28138134  0.41669039  0.87450081     0.61900
H772        H  0.23046902  0.39964772  0.86856468     0.12600
H773        H  0.28935290  0.30337311  0.87880993     0.12600
C774        C  0.23816504  0.28684428  0.87896103     0.62100
F775        F  0.26233739  0.43986758  0.86708204    -0.23000
F776        F  0.30280801  0.42100183  0.85382892    -0.20400
F777        F  0.28890129  0.42191607  0.90463927    -0.20000
F778        F  0.23006422  0.27719361  0.85032282    -0.20100
F779        F  0.21714595  0.28664801  0.90077733    -0.20400
F780        F  0.25692818  0.26454416  0.88922242    -0.23100
C781        C  0.17555199  0.10731441  0.75077308    -0.05900
C782        C  0.16568447  0.13337518  0.76842064     0.00000
C783        C  0.15071121  0.15815160  0.75299984    -0.08600
C784        C  0.14965132  0.15819215  0.72011126    -0.05900
C785        C  0.16038740  0.13283299  0.70248978     0.00000
C786        C  0.17260592  0.10617429  0.71805636    -0.08500
C787        C  0.18105103  0.07590364  0.70080392     0.61900
H788        H  0.18465855  0.08710421  0.76311557     0.12600
H789        H  0.13963825  0.17802495  0.70798153     0.12600
C790        C  0.13393193  0.18395275  0.76931098     0.62100
F791        F  0.19574131  0.05491019  0.71938692    -0.23000
F792        F  0.19625934  0.08318224  0.67399791    -0.20400
F793        F  0.15879532  0.06030045  0.69243554    -0.20000
F794        F  0.14179441  0.21395800  0.75838189    -0.20100
F795        F  0.13514562  0.18266398  0.80146194    -0.20400
F796        F  0.10782038  0.18047996  0.76221079    -0.23100
C797        C  0.23948289  0.12758366  0.87606740    -0.05900
C798        C  0.23013034  0.11767958  0.84745411     0.00000
C799        C  0.24840086  0.10689842  0.82373269    -0.08600
C800        C  0.27554753  0.10785652  0.82887399    -0.05900
C801        C  0.28492115  0.11914615  0.85679429     0.00000
C802        C  0.26673456  0.12883051  0.88111777    -0.08500
C803        C  0.27600728  0.14147558  0.91168242     0.61900
H804        H  0.22521186  0.13527713  0.89412170     0.12600
H805        H  0.28982381  0.10080286  0.81055465     0.12600
C806        C  0.23939689  0.09454477  0.79307559     0.62100
F807        F  0.25508741  0.15215693  0.93100061    -0.23000
F808        F  0.29260114  0.16701131  0.90548948    -0.20400
F809        F  0.28938194  0.11722642  0.92781175    -0.20000
F810        F  0.22825814  0.11959457  0.77576839    -0.20100
F811        F  0.22108173  0.07083548  0.79916650    -0.20400
F812        F  0.26019456  0.08142402  0.77512941    -0.23100
C813        C  0.17924544  0.22203141  0.82077706    -0.05900
C814        C  0.17616946  0.20383793  0.84887225     0.00000
C815        C  0.17382031  0.22030671  0.87756185    -0.08600
C816        C  0.17084556  0.25406690  0.87654860    -0.05900
C817        C  0.17244525  0.27255333  0.84825482     0.00000
C818        C  0.17705483  0.25595023  0.81950210    -0.08500
C819        C  0.17530621  0.27196119  0.78702966     0.61900
H820        H  0.18134281  0.20914632  0.79915505     0.12600
H821        H  0.16827738  0.26633848  0.89859983     0.12600
C822        C  0.17584966  0.20400088  0.90980861     0.62100
F823        F  0.18192024  0.25093617  0.76320018    -0.23000
F824        F  0.19215676  0.29710199  0.78242040    -0.20400
F825        F  0.14959855  0.28248321  0.78343957    -0.20000
F826        F  0.18582390  0.17281449  0.90843776    -0.20100
F827        F  0.15117994  0.20391666  0.92505564    -0.20400
F828        F  0.19276994  0.22089335  0.92745672    -0.23100
C829        C  0.08909244  0.07488864  0.88821266    -0.05900
C830        C  0.09613970  0.06219218  0.91768881     0.00000
C831        C  0.12171809  0.06876261  0.92808336    -0.08600
C832        C  0.13953467  0.08551919  0.90748052    -0.05900
C833        C  0.13265882  0.09758507  0.87753872     0.00000
C834        C  0.10564704  0.09504423  0.86957743    -0.08500
C835        C  0.09196592  0.11449881  0.84377209     0.61900
H836        H  0.06942532  0.07090337  0.88035686     0.12600
H837        H  0.15888901  0.09045452  0.91544234     0.12600
C838        C  0.13013922  0.05981526  0.96113379     0.62100
F839        F  0.08920580  0.09550972  0.81809492    -0.23000
F840        F  0.10499706  0.14210763  0.83461712    -0.20400
F841        F  0.06697715  0.12448525  0.85458208    -0.20000
F842        F  0.13192929  0.02671264  0.96525316    -0.20100
F843        F  0.11198840  0.07250805  0.98291723    -0.20400
F844        F  0.15456436  0.07185923  0.96708982    -0.23100
C845        C  0.10347155  0.44298378  0.60652225    -0.05900
C846        C  0.09852337  0.43054737  0.57731053     0.00000
C847        C  0.11569122  0.40640801  0.56469359    -0.08600
C848        C  0.13556058  0.39300670  0.58349422    -0.05900
C849        C  0.13859891  0.40264308  0.61454336     0.00000
C850        C  0.12464879  0.43121740  0.62421745    -0.08500
C851        C  0.13354760  0.45303278  0.64940454     0.61900
H852        H  0.09169297  0.46352109  0.61464257     0.12600
H853        H  0.14801148  0.37342562  0.57467568     0.12600
C854        C  0.11236099  0.39389038  0.53208622     0.62100
F855        F  0.13279929  0.48468578  0.63836816    -0.23000
F856        F  0.15927511  0.44604108  0.65736770    -0.20400
F857        F  0.11663060  0.45078621  0.67573366    -0.20000
F858        F  0.11472854  0.41645733  0.01032992    -0.20100
F859        F  0.08755851  0.38110439  0.53044295    -0.20400
F860        F  0.13104838  0.37012654  0.52472306    -0.23100
C861        C  0.36869068  0.08282191  0.57911762    -0.05900
C862        C  0.37629379  0.09852744  0.60610514     0.00000
C863        C  0.40384408  0.09893837  0.61220548    -0.08600
C864        C  0.42138092  0.08040231  0.59377513    -0.05900
C865        C  0.41379621  0.06425012  0.56742440     0.00000
C866        C  0.38685477  0.06559623  0.55961708    -0.08500
C867        C  0.37699042  0.04923648  0.53107012     0.61900
H868        H  0.34845874  0.08438025  0.57258786     0.12600
H869        H  0.44187121  0.07904269  0.60015344     0.12600
C870        C  0.41709380  0.11697558  0.63781728     0.62100
F871        F  0.34993821  0.04519492  0.03680840    -0.23000
F872        F  0.38331348  0.01076963  0.04632187    -0.20400
F873        F  0.38816982  0.05100127  0.00953979    -0.20000
F874        F  0.42549308  0.09489448  0.66046082    -0.20100
F875        F  0.40169006  0.14029031  0.65242972    -0.20400
F876        F  0.43901989  0.13242697  0.62471526    -0.23100
C877        C  0.10848668  0.12704403  0.58337331    -0.05900
C878        C  0.13253980  0.11181415  0.59193030     0.00000
C879        C  0.13639563  0.07847127  0.58411352    -0.08600
C880        C  0.11681545  0.06335007  0.56761146    -0.05900
C881        C  0.09321130  0.07900883  0.55939028     0.00000
C882        C  0.08943500  0.11194665  0.56634555    -0.08500
C883        C  0.06550745  0.13171805  0.55595538     0.61900
H884        H  0.10338351  0.15073803  0.59150225     0.12600
H885        H  0.11960930  0.03838278  0.56142579     0.12600
C886        C  0.16056088  0.05756654  0.59199489     0.62100
F887        F  0.06920064  0.16445145  0.55827121    -0.23000
F888        F  0.04355573  0.12372263  0.57472750    -0.20400
F889        F  0.06093866  0.12609214  0.52484693    -0.20000
F890        F  0.16850499  0.06280135  0.62191517    -0.20100
F891        F  0.18090868  0.06326951  0.57000750    -0.20400
F892        F  0.15538633  0.02514662  0.59088209    -0.23100
C893        C  0.42928588  0.39673489  0.90711136    -0.05900
C894        C  0.42066583  0.41513783  0.93287517     0.00000
C895        C  0.39326536  0.41573789  0.94166628    -0.08600
C896        C  0.37599702  0.39831446  0.92396678    -0.05900
C897        C  0.38427244  0.38078012  0.89710774     0.00000
C898        C  0.41213663  0.37918064  0.88941295    -0.08500
C899        C  0.42628099  0.35996927  0.86336837     0.61900
H900        H  0.45017269  0.39595920  0.90032248     0.12600
H901        H  0.35577343  0.39841493  0.93211216     0.12600
C902        C  0.38173564  0.43435492  0.96964050     0.62100
F903        F  0.43881134  0.38117168  0.84227987    -0.23000
F904        F  0.41058267  0.34089430  0.84667678    -0.20400
F905        F  0.44525809  0.33985212  0.87655571    -0.20000
F906        F  0.35515178  0.42875874  0.97575771    -0.20100
F907        F  0.38416040  0.46708434  0.96372547    -0.20400
F908        F  0.39475060  0.42524368  0.99642551    -0.23100
C909        C  0.39118808  0.06874548  0.88030631    -0.05900
C910        C  0.37766172  0.09607237  0.89271061     0.00000
C911        C  0.38148628  0.10281817  0.92494793    -0.08600
C912        C  0.40201228  0.08628424  0.94051575    -0.05900
C913        C  0.41743733  0.06204602  0.92609733     0.00000
C914        C  0.41176701  0.05264330  0.89572330    -0.08500
C915        C  0.42810608  0.02655422  0.87904450     0.61900
H916        H  0.38582627  0.05970515  0.85812472     0.12600
H917        H  0.40603120  0.09232978  0.96438481     0.12600
C918        C  0.36476280  0.12602176  0.94495181     0.62100
F919        F  0.41755542  0.01866917  0.85096013    -0.23000
F920        F  0.41181812  0.49452302  0.90648061    -0.20400
F921        F  0.45336613  0.03737454  0.87247233    -0.20000
F922        F  0.34181378  0.13664904  0.93148063    -0.20100
F923        F  0.37957802  0.15235771  0.95115861    -0.20400
F924        F  0.35739014  0.11073222  0.97322335    -0.23100
C925        C  0.13632557  0.41219118  0.89419887    -0.05900
C926        C  0.13853647  0.37844307  0.89965884     0.00000
C927        C  0.12458508  0.36515857  0.92667898    -0.08600
C928        C  0.10484949  0.38431269  0.94194529    -0.05900
C929        C  0.10101949  0.41701384  0.93390234     0.00000
C930        C  0.11753117  0.43158095  0.91038137    -0.08500
C931        C  0.11466683  0.46721097  0.90162851     0.61900
H932        H  0.14934389  0.42355355  0.87662402     0.12600
H933        H  0.09275466  0.37391704  0.96112352     0.12600
C934        C  0.13085819  0.33244887  0.94190499     0.62100
F935        F  0.13163714  0.47615919  0.87667769    -0.23000
F936        F  0.12035479  0.48526616  0.92700122    -0.20400
F937        F  0.08908976  0.47437757  0.89312921    -0.20000
F938        F  0.12816050  0.33407216  0.97426207    -0.20100
F939        F  0.15655775  0.32214012  0.93506384    -0.20400
F940        F  0.11339922  0.31008099  0.93245435    -0.23100
C941        C  0.40282559  0.39373492  0.56302349    -0.05900
C942        C  0.41757043  0.41693220  0.57713708     0.00000
C943        C  0.40950576  0.42712550  0.60742323    -0.08600
C944        C  0.38854981  0.41147704  0.62379897    -0.05900
C945        C  0.37573407  0.38518612  0.61143112     0.00000
C946        C  0.38086107  0.37927294  0.57879905    -0.08500
C947        C  0.36335088  0.36010998  0.55856039     0.61900
H948        H  0.40813099  0.38732900  0.53908291     0.12600
H949        H  0.38216008  0.42002677  0.64660465     0.12600
C950        C  0.42321301  0.45440035  0.62243077     0.62100
F951        F  0.35672964  0.37890840  0.53253628    -0.23000
F952        F  0.33997608  0.35104260  0.57368777    -0.20400
F953        F  0.37697507  0.33286068  0.54834195    -0.20000
F954        F  0.42247015  0.48166221  0.60296796    -0.20100
F955        F  0.44921227  0.44540973  0.62716434    -0.20400
F956        F  0.41135917  0.46214702  0.65120763    -0.23100
O957        O  0.46849894  0.92542637  0.44069740    -0.73800
O958        O  0.43607030  0.95506342  0.46531703    -0.54300
C959        C  0.44389522  0.93254776  0.44695290     0.78300
O960        O  0.05208157  0.94185126  0.07339670    -0.60000
O961        O  0.08242746  0.96494015  0.03893913    -0.53100
C962        C  0.07599302  0.94772113  0.06355903     0.70300
O963        O  0.46373166  0.93274976  0.07025008    -0.74600
O964        O  0.43293259  0.95724256  0.03931554    -0.55100
C965        C  0.43968816  0.93849581  0.06234469     0.76300
O966        O  0.05493180  0.92641451  0.44439106    -0.59700
O967        O  0.08411570  0.95959951  0.46567383    -0.52800
C968        C  0.07841807  0.93586074  0.44885018     0.72900
Zr969      Zr  0.00960662  0.94304283  0.45903273     2.54700
O970        O  0.01055366  0.88487792  0.46807142    -0.80300
O971        O  0.00984139  0.93767225  0.40226366    -0.93700
Zr972      Zr  0.00721432  0.95265178  0.05528768     2.64700
O973        O  0.51236617  0.88975096  0.05583541    -0.98700
O974        O  0.00253302  0.96366271  0.11107040    -0.80700
O975        O  0.48329212  0.94322192  0.00628171    -0.84100
O976        O  0.03370898  0.94670440  0.00836958    -2.18800
O977        O  0.05146638  0.55588967  0.43365686    -0.67500
O978        O  0.08293380  0.53072885  0.46250001    -0.52000
C979        C  0.07571353  0.55043782  0.44053176     0.71300
O980        O  0.45855792  0.56217566  0.05089070    -0.60400
O981        O  0.42951296  0.52875201  0.03076962    -0.52400
C982        C  0.43498346  0.55258576  0.04743944     0.73100
O983        O  0.04719246  0.56397026  0.05523589    -0.71800
O984        O  0.08005291  0.53508662  0.03007829    -0.50500
C985        C  0.07173165  0.55764577  0.04850710     0.74500
O986        O  0.46066111  0.54993149  0.43343772    -0.67100
O987        O  0.43053613  0.52246753  0.46475194    -0.54300
C988        C  0.43686568  0.54245754  0.44218064     0.72900
Zr989      Zr  0.50569533  0.53646339  0.44899256     2.77500
O990        O  0.50212254  0.59499915  0.44492316    -0.97900
O991        O  0.50754331  0.53142019  0.39217090    -0.78700
Zr992      Zr  0.50387298  0.54633413  0.03770687     2.70100
O993        O  0.00174026  0.60327763  0.03017864    -0.79900
O994        O  0.50159669  0.54843932  0.09482515    -0.99000
Zr995      Zr  0.45801568  0.99147511  0.49805910     2.21500
Zr996      Zr  0.05823353  0.49552103  0.99936267     2.11100
O997        O  0.03101324  0.54439124  0.49549308    -2.47700
O998        O  0.47878712  0.53855788  0.49585702    -0.79700
O999        O  0.03431750  0.49266000  0.45287710    -0.71900
O1000       O  0.48151126  0.99547787  0.04803486    -2.32900
O1001       O  0.48396462  0.99188040  0.45000999    -2.29100
O1002       O  0.03168557  0.49856072  0.04677393    -0.73700
H1003       H  0.04573661  0.92844362  0.01079628     0.78300
H1004       H  0.46983722  0.99659815  0.06655189     0.79400
H1005       H  0.04150998  0.56347757  0.49382047     0.81600
H1006       H  0.47298172  0.99087282  0.43213270     0.79200
H1007       H  0.51000484  0.97653525  0.11141200     0.42300
H1008       H  0.98537516  0.53988409  0.10465005     0.41300
H1009       H  0.49346206  0.60832859  0.00993220     0.40900
H1010       H  0.99052171  0.60541222  0.45617474     0.38900
H1011       H  0.00233197  0.55151323  0.38375767     0.42000
H1012       H  0.52211263  0.92843322  0.38941033     0.36800
H1013       H  0.51270293  0.88157132  0.43053008     0.42900
H1014       H  0.01081766  0.89112705  0.08655602     0.39300
H1015       H  0.51218205  0.60090770  0.42521093     0.44200
H1016       H  0.02752129  0.94468370  0.39441492     0.43000
H1017       H  0.99714273  0.88544980  0.05500127     0.43100
H1018       H  0.50027001  0.57168977  0.09920750     0.43400
C1019       C  0.15253961  0.61884369  0.35720041     0.86400
C1020       C  0.14856368  0.61670378  0.32180331    -0.53900
C1021       C  0.16569505  0.63431970  0.30324178     0.09300
C1022       C  0.18719106  0.65040317  0.32171808     0.20200
C1023       C  0.18146596  0.60643798  0.36027349    -0.54600
C1024       C  0.19957447  0.62300940  0.34179467     0.09400
C1025       C  0.15335195  0.65485700  0.36366809    -0.54100
C1026       C  0.17202784  0.67138689  0.34617561     0.10000
H1027       H  0.13359575  0.60242847  0.31195433     0.14500
H1028       H  0.20196775  0.66365425  0.30666313     0.00200
H1029       H  0.18747986  0.58692764  0.37612066     0.14800
H1030       H  0.13979571  0.66623522  0.38057177     0.14600
C1031       C  0.15890324  0.86127666  0.37981631     0.86400
C1032       C  0.15472181  0.82518615  0.37399930    -0.53900
C1033       C  0.17314756  0.81114941  0.35370735     0.09300
C1034       C  0.19363478  0.83539785  0.34025747     0.20200
C1035       C  0.18749687  0.86349978  0.38940984    -0.54600
C1036       C  0.20556099  0.84996880  0.36897890     0.09400
C1037       C  0.15862995  0.87603651  0.34631917    -0.54100
C1038       C  0.17674698  0.86297350  0.32569957     0.10000
H1039       H  0.13850236  0.81157489  0.38417882     0.14500
H1040       H  0.20934161  0.82544878  0.32427071     0.00200
H1041       H  0.19306726  0.87555371  0.41028919     0.14800
H1042       H  0.14355059  0.89328384  0.33866937     0.14600
C1043       C  0.15376214  0.88088669  0.13998421     0.86400
C1044       C  0.15029468  0.88400188  0.17582575    -0.53900
C1045       C  0.16476064  0.86228089  0.19268366     0.09300
C1046       C  0.18041728  0.83771647  0.17270965     0.20200
C1047       C  0.18407557  0.88095360  0.13300588    -0.54600
C1048       C  0.19815738  0.85813625  0.14994401     0.09400
C1049       C  0.14609354  0.84565902  0.13511108    -0.54100
C1050       C  0.15968067  0.82313931  0.15228838     0.10000
H1051       H  0.13723796  0.90083571  0.18777890     0.14500
H1052       H  0.19146623  0.81940980  0.18686402     0.00200
H1053       H  0.19342476  0.89846270  0.11705185     0.14800
H1054       H  0.13160525  0.83885644  0.11867013     0.14600
C1055       C  0.15025401  0.63194733  0.11320855     0.86400
C1056       C  0.14636740  0.66944369  0.11123289    -0.53900
C1057       C  0.16152861  0.68571870  0.13089257     0.09300
C1058       C  0.17921116  0.66364161  0.15048609     0.20200
C1059       C  0.18041236  0.62754395  0.10675148    -0.54600
C1060       C  0.19558297  0.64395304  0.12631519     0.09400
C1061       C  0.14574827  0.62313515  0.14841413    -0.54100
C1062       C  0.16108753  0.63933351  0.16768901     0.10000
H1063       H  0.13392482  0.68256370  0.09494585     0.14500
H1064       H  0.19087298  0.67710255  0.16689319     0.00200
H1065       H  0.18932627  0.61265244  0.08890379     0.14800
H1066       H  0.13140841  0.60574988  0.15726910     0.14600
C1067       C  0.35785780  0.61523604  0.37113190     0.86400
C1068       C  0.35787919  0.65215147  0.37531531    -0.53900
C1069       C  0.34042962  0.67012878  0.35731258     0.09300
C1070       C  0.32603914  0.64834080  0.33510573     0.20200
C1071       C  0.32875101  0.60575825  0.37529639    -0.54600
C1072       C  0.31221807  0.62327269  0.35669766     0.09400
C1073       C  0.36470610  0.61268736  0.33553274    -0.54100
C1074       C  0.34811195  0.62983687  0.31684457     0.10000
H1075       H  0.37141484  0.66298988  0.39057318     0.14500
H1076       H  0.31169436  0.65939623  0.31954514     0.00200
H1077       H  0.32193278  0.58662548  0.39135769     0.14800
H1078       H  0.38147925  0.59923598  0.32544565     0.14600
C1079       C  0.35455251  0.61807044  0.12741023     0.86400
C1080       C  0.35880813  0.61007913  0.16216053    -0.53900
C1081       C  0.34266323  0.62694130  0.18227692     0.09300
C1082       C  0.32279880  0.65003109  0.16593469     0.20200
C1083       C  0.32492435  0.61111947  0.12427494    -0.54600
C1084       C  0.30817406  0.62811983  0.14419555     0.09400
C1085       C  0.35562600  0.65476154  0.12299217    -0.54100
C1086       C  0.33954396  0.67168987  0.14325056     0.10000
H1087       H  0.37402005  0.59325448  0.17024752     0.14500
H1088       H  0.31001497  0.66373813  0.18283374     0.00200
H1089       H  0.31700442  0.59494139  0.10794552     0.14800
H1090       H  0.36886823  0.66647909  0.10567145     0.14600
C1091       C  0.35912555  0.86664483  0.13611960     0.86400
C1092       C  0.36237470  0.83072371  0.12839914    -0.53900
C1093       C  0.34802355  0.81053551  0.14795102     0.09300
C1094       C  0.33097079  0.82798949  0.17327377     0.20200
C1095       C  0.32903317  0.87374626  0.13623490    -0.54600
C1096       C  0.31400175  0.85345437  0.15538394     0.09400
C1097       C  0.36577356  0.86690636  0.17131588    -0.54100
C1098       C  0.35099893  0.84716766  0.19067819     0.10000
H1099       H  0.37515438  0.82180320  0.10934399     0.14500
H1100       H  0.31939996  0.81085204  0.18831197     0.00200
H1101       H  0.32033132  0.89265330  0.12153923     0.14800
H1102       H  0.38109172  0.88084594  0.18089973     0.14600
C1103       C  0.36550810  0.86187798  0.37903166     0.86400
C1104       C  0.36871246  0.86930787  0.34332080    -0.53900
C1105       C  0.35096557  0.85443504  0.32595523     0.09300
C1106       C  0.33108722  0.83440919  0.34551769     0.20200
C1107       C  0.33611169  0.87200096  0.38695249    -0.54600
C1108       C  0.31842956  0.85775732  0.36901222     0.09400
C1109       C  0.36555978  0.82482538  0.38261881    -0.54100
C1110       C  0.34733591  0.81021350  0.36548141     0.10000
H1111       H  0.38403655  0.88428142  0.33258309     0.14500
H1112       H  0.31619689  0.82352555  0.33107531     0.00200
H1113       H  0.32904327  0.88846469  0.40476598     0.14800
H1114       H  0.37921816  0.81153348  0.39731484     0.14600
C1115       C  0.34403822  0.87719503  0.23945101    -0.05900
C1116       C  0.35231402  0.84835001  0.22542882     0.00000
C1117       C  0.36228989  0.82266011  0.24445786    -0.08600
C1118       C  0.36205582  0.82613100  0.27717992    -0.05900
C1119       C  0.35224366  0.85424137  0.29121187     0.00000
C1120       C  0.34285607  0.88020045  0.27222217    -0.08500
C1121       C  0.32978008  0.90976575  0.28649825     0.61900
H1122       H  0.33769206  0.89713390  0.22441776     0.12600
H1123       H  0.36960478  0.80685262  0.29223447     0.12600
C1124       C  0.37480711  0.79276342  0.23033694     0.62100
F1125       F  0.32245355  0.93247694  0.26381997    -0.23000
F1126       F  0.34674478  0.92403777  0.30606222    -0.20400
F1127       F  0.30727073  0.90051895  0.30347754    -0.20000
F1128       F  0.39541042  0.80172042  0.20997208    -0.20100
F1129       F  0.35636430  0.77653638  0.21449464    -0.20400
F1130       F  0.38496001  0.77188172  0.25296942    -0.23100
C1131       C  0.36598431  0.72047748  0.14648567    -0.05900
C1132       C  0.34089335  0.70745839  0.14425656     0.00000
C1133       C  0.31887993  0.72865728  0.14020888    -0.08600
C1134       C  0.32248864  0.76201899  0.14175429    -0.05900
C1135       C  0.34748103  0.77501671  0.14487402     0.00000
C1136       C  0.36997767  0.75379744  0.14625415    -0.08500
C1137       C  0.39861203  0.76361094  0.14757585     0.61900
H1138       H  0.38295693  0.70420561  0.14832462     0.12600
H1139       H  0.30565632  0.77851080  0.13993007     0.12600
C1140       C  0.29218118  0.71671155  0.13187993     0.62100
F1141       F  0.41003452  0.74783981  0.17285366    -0.23000
F1142       F  0.40192704  0.79606926  0.15064845    -0.20400
F1143       F  0.41217151  0.75436827  0.12028209    -0.20000
F1144       F  0.28042281  0.70041490  0.15726916    -0.20100
F1145       F  0.29531216  0.69665040  0.10665888    -0.20400
F1146       F  0.27530150  0.74185882  0.12331838    -0.23100
C1147       C  0.34050808  0.60065941  0.26890141    -0.05900
C1148       C  0.35000353  0.62829603  0.28213914     0.00000
C1149       C  0.36090972  0.65286008  0.26204147    -0.08600
C1150       C  0.35738861  0.65147921  0.22965196    -0.05900
C1151       C  0.34578427  0.62511747  0.21660253     0.00000
C1152       C  0.33911872  0.59794649  0.23623133    -0.08500
C1153       C  0.33081573  0.56558972  0.22468569     0.61900
H1154       H  0.33402911  0.58090411  0.28437395     0.12600
H1155       H  0.36452424  0.67088303  0.21413840     0.12600
C1156       C  0.37807164  0.67948017  0.27264861     0.62100
F1157       F  0.35024874  0.54267719  0.23124672    -0.23000
F1158       F  0.32684018  0.56550754  0.19285382    -0.20400
F1159       F  0.30752838  0.55661095  0.24038226    -0.20000
F1160       F  0.40359109  0.67424663  0.26066557    -0.20100
F1161       F  0.37885771  0.68093181  0.30488250    -0.20400
F1162       F  0.36898830  0.70894244  0.26093774    -0.23100
C1163       C  0.34387006  0.72012520  0.38850510    -0.05900
C1164       C  0.33735834  0.70661958  0.35985417     0.00000
C1165       C  0.32899981  0.72879768  0.33562092    -0.08600
C1166       C  0.33525485  0.76140760  0.33771059    -0.05900
C1167       C  0.34305857  0.77454350  0.36562104     0.00000
C1168       C  0.34470202  0.75364796  0.39252872    -0.08500
C1169       C  0.34578897  0.76538840  0.42587270     0.61900
H1170       H  0.34708958  0.70436586  0.40875366     0.12600
H1171       H  0.33306816  0.77710102  0.31728854     0.12600
C1172       C  0.31070561  0.72077247  0.30978160     0.62100
F1173       F  0.33219255  0.74486422  0.44670036    -0.23000
F1174       F  0.33404002  0.79561548  0.42896120    -0.20400
F1175       F  0.37176006  0.76597906  0.43440854    -0.20000
F1176       F  0.28834543  0.70647580  0.32309409    -0.20100
F1177       F  0.32327611  0.70116278  0.28811781    -0.20400
F1178       F  0.30201736  0.74805935  0.29335425    -0.23100
C1179       C  0.23353024  0.63560629  0.15929159    -0.05900
C1180       C  0.22469360  0.63948088  0.12860877     0.00000
C1181       C  0.24367917  0.63896400  0.10296749    -0.08600
C1182       C  0.27034931  0.63320754  0.10955587    -0.05900
C1183       C  0.27904116  0.62928589  0.14040654     0.00000
C1184       C  0.25998207  0.62971332  0.16576491    -0.08500
C1185       C  0.26551543  0.62307204  0.19999861     0.61900
H1186       H  0.21936519  0.63616873  0.17907044     0.12600
H1187       H  0.28489300  0.63368784  0.09008140     0.12600
C1188       C  0.23837788  0.64630736  0.06856609     0.62100
F1189       F  0.24784121  0.60095387  0.21288114    -0.23000
F1190       F  0.26253972  0.65131538  0.21624671    -0.20400
F1191       F  0.29028501  0.61029256  0.20399945    -0.20000
F1192       F  0.21259391  0.65491774  0.06287656    -0.20100
F1193       F  0.24536658  0.61956043  0.05123761    -0.20400
F1194       F  0.25385676  0.67164433  0.05777281    -0.23100
C1195       C  0.18199151  0.77300497  0.13679536    -0.05900
C1196       C  0.15827948  0.78799186  0.14709985     0.00000
C1197       C  0.13492943  0.76950702  0.15012499    -0.08600
C1198       C  0.13681765  0.73642992  0.14366738    -0.05900
C1199       C  0.16078435  0.72142664  0.13395359     0.00000
C1200       C  0.18360006  0.74038898  0.12931687    -0.08500
C1201       C  0.20939426  0.72730057  0.11495033     0.61900
H1202       H  0.19949695  0.78740933  0.13399991     0.12600
H1203       H  0.11938110  0.72190258  0.14694214     0.12600
C1204       C  0.10770346  0.78224072  0.16069339     0.62100
F1205       F  0.20442900  0.70823973  0.09013575    -0.23000
F1206       F  0.22302835  0.70978446  0.13730296    -0.20400
F1207       F  0.22536138  0.75181517  0.10324444    -0.20000
F1208       F  0.09046694  0.77859001  0.13687714    -0.20100
F1209       F  0.10710917  0.81419149  0.16828234    -0.20400
F1210       F  0.09871908  0.76456899  0.18693634    -0.23100
C1211       C  0.23952820  0.85412668  0.17929753    -0.05900
C1212       C  0.22791808  0.85536368  0.14996626     0.00000
C1213       C  0.24483220  0.85389237  0.12250714    -0.08600
C1214       C  0.27255228  0.85306355  0.12564064    -0.05900
C1215       C  0.28416916  0.85359892  0.15506635     0.00000
C1216       C  0.26710929  0.85474843  0.18253756    -0.08500
C1217       C  0.27715108  0.86044563  0.21492399     0.61900
H1218       H  0.22661738  0.85392559  0.20007892     0.12600
H1219       H  0.28549142  0.85221781  0.10471437     0.12600
C1220       C  0.23434495  0.85294850  0.08976154     0.62100
F1221       F  0.25672230  0.86458198  0.23720325    -0.23000
F1222       F  0.29156825  0.88816660  0.21351659    -0.20400
F1223       F  0.29249823  0.83481675  0.22539316    -0.20000
F1224       F  0.22990047  0.88405039  0.07842019    -0.20100
F1225       F  0.21114056  0.83617347  0.08983768    -0.20400
F1226       F  0.25238272  0.83777073  0.06939946    -0.23100
C1227       C  0.15007363  0.85420960  0.28036612    -0.05900
C1228       C  0.17296024  0.86689688  0.29174381     0.00000
C1229       C  0.19119095  0.88248587  0.27093653    -0.08600
C1230       C  0.18749043  0.88123252  0.23849317    -0.05900
C1231       C  0.16649960  0.86432669  0.22699689     0.00000
C1232       C  0.14689549  0.85164368  0.24810476    -0.08500
C1233       C  0.12353244  0.83408788  0.23669886     0.61900
H1234       H  0.13545067  0.84445952  0.29713494     0.12600
H1235       H  0.20090271  0.89343415  0.22190716     0.12600
C1236       C  0.21342486  0.90144576  0.28326860     0.62100
F1237       F  0.10627007  0.82463626  0.26117588    -0.23000
F1238       F  0.13269835  0.80683523  0.22149586    -0.20400
F1239       F  0.10956687  0.85387964  0.21634534    -0.20000
F1240       F  0.23061727  0.88094280  0.29895892    -0.20100
F1241       F  0.20304346  0.92411852  0.30381397    -0.20400
F1242       F  0.22752911  0.91748038  0.25927913    -0.23100
C1243       C  0.24542837  0.88292780  0.36993745    -0.05900
C1244       C  0.23431337  0.85233940  0.37270279     0.00000
C1245       C  0.25059515  0.82504183  0.37906124    -0.08600
C1246       C  0.27783041  0.82904037  0.38015807    -0.05900
C1247       C  0.28938110  0.85907022  0.37439966     0.00000
C1248       C  0.27289611  0.88698424  0.37028332    -0.08500
C1249       C  0.28243407  0.92127431  0.36588549     0.61900
H1250       H  0.23251398  0.90379918  0.36613882     0.12600
H1251       H  0.29062889  0.80812664  0.38403122     0.12600
C1252       C  0.23955757  0.79168677  0.38422322     0.62100
F1253       F  0.27140779  0.93571159  0.33965846    -0.23000
F1254       F  0.30948297  0.92337632  0.36199787    -0.20400
F1255       F  0.27419498  0.93850711  0.39193839    -0.20000
F1256       F  0.23170435  0.78057439  0.35601175    -0.20100
F1257       F  0.21831131  0.79271045  0.40570815    -0.20400
F1258       F  0.25814914  0.76992641  0.39583489    -0.23100
C1259       C  0.17323415  0.60966434  0.25143618    -0.05900
C1260       C  0.16356264  0.63618218  0.26850357     0.00000
C1261       C  0.14958452  0.66134412  0.25241912    -0.08600
C1262       C  0.14952578  0.66132444  0.21947906    -0.05900
C1263       C  0.16014157  0.63550836  0.20241727     0.00000
C1264       C  0.17114472  0.60841429  0.21861313    -0.08500
C1265       C  0.17945417  0.57780599  0.20184483     0.61900
H1266       H  0.18161313  0.58930875  0.26428856     0.12600
H1267       H  0.14020438  0.68135286  0.20686519     0.12600
C1268       C  0.13255418  0.68732711  0.26805337     0.62100
F1269       F  0.19188946  0.55572239  0.22162503    -0.23000
F1270       F  0.19668502  0.58437992  0.17661504    -0.20400
F1271       F  0.15731537  0.56369767  0.19114561    -0.20000
F1272       F  0.14052733  0.71724539  0.25697717    -0.20100
F1273       F  0.13326932  0.68638361  0.30029628    -0.20400
F1274       F  0.10661361  0.68366049  0.26029094    -0.23100
C1275       C  0.23808763  0.63044942  0.37424203    -0.05900
C1276       C  0.22848696  0.61954763  0.34621268     0.00000
C1277       C  0.24642226  0.60647309  0.32330833    -0.08600
C1278       C  0.27366504  0.60649427  0.32847707    -0.05900
C1279       C  0.28331050  0.61870490  0.35591281     0.00000
C1280       C  0.26530677  0.63044929  0.37951313    -0.08500
C1281       C  0.27473569  0.64355466  0.40977738     0.61900
H1282       H  0.22402281  0.63962654  0.39178419     0.12600
H1283       H  0.28778655  0.59793760  0.31058981     0.12600
C1284       C  0.23688000  0.59287742  0.29348011     0.62100
F1285       F  0.25399582  0.65554362  0.42861688    -0.23000
F1286       F  0.29202662  0.66826190  0.40312416    -0.20400
F1287       F  0.28735591  0.61918744  0.42658892    -0.20000
F1288       F  0.22696547  0.61765655  0.27475912    -0.20100
F1289       F  0.21735803  0.57091105  0.30082633    -0.20400
F1290       F  0.25706550  0.57719589  0.27657715    -0.23100
C1291       C  0.17896105  0.72522482  0.32136748    -0.05900
C1292       C  0.17606915  0.70665244  0.34923906     0.00000
C1293       C  0.17465088  0.72251289  0.37836106    -0.08600
C1294       C  0.17347695  0.75632139  0.37801009    -0.05900
C1295       C  0.17478482  0.77520396  0.35000852     0.00000
C1296       C  0.17764443  0.75914371  0.32085577    -0.08500
C1297       C  0.17466874  0.77612281  0.28912270     0.61900
H1298       H  0.17999986  0.71276782  0.29945033     0.12600
H1299       H  0.17159313  0.76831293  0.40025086     0.12600
C1300       C  0.17431121  0.70518575  0.41035185     0.62100
F1301       F  0.17918330  0.75561795  0.26438465    -0.23000
F1302       F  0.19222902  0.80051364  0.28407241    -0.20400
F1303       F  0.14907114  0.78790078  0.28790660    -0.20000
F1304       F  0.18579549  0.67473824  0.40897000    -0.20100
F1305       F  0.14851935  0.70305605  0.42214655    -0.20400
F1306       F  0.18836883  0.72212242  0.43121541    -0.23100
C1307       C  0.08825573  0.58081921  0.39170910    -0.05900
C1308       C  0.09611376  0.56802989  0.42083111     0.00000
C1309       C  0.12180550  0.57483899  0.43054484    -0.08600
C1310       C  0.13926170  0.59099581  0.40906189    -0.05900
C1311       C  0.13168818  0.60234520  0.37909332     0.00000
C1312       C  0.10439534  0.60069999  0.37247475    -0.08500
C1313       C  0.09009515  0.62087493  0.34769127     0.61900
H1314       H  0.06834878  0.57705504  0.38452191     0.12600
H1315       H  0.15888572  0.59587441  0.41623303     0.12600
C1316       C  0.13065317  0.56686219  0.46363234     0.62100
F1317       F  0.08581288  0.60228739  0.32215128    -0.23000
F1318       F  0.10342540  0.64809965  0.33794850    -0.20400
F1319       F  0.06575583  0.63153459  0.36004113    -0.20000
F1320       F  0.13341281  0.53392053  0.46831093    -0.20100
F1321       F  0.11229038  0.57908103  0.48544505    -0.20400
F1322       F  0.15473337  0.58018228  0.46905338    -0.23100
C1323       C  0.10222472  0.94493601  0.11133951    -0.05900
C1324       C  0.09781332  0.93324233  0.08164895     0.00000
C1325       C  0.11499716  0.90909689  0.06911154    -0.08600
C1326       C  0.13496168  0.89579440  0.08780857    -0.05900
C1327       C  0.13783802  0.90488077  0.11906744     0.00000
C1328       C  0.12318265  0.93289060  0.12937907    -0.08500
C1329       C  0.13074348  0.95384543  0.15600517     0.61900
H1330       H  0.09001192  0.96498536  0.11975196     0.12600
H1331       H  0.14762912  0.87654375  0.07870234     0.12600
C1332       C  0.11147019  0.89636823  0.03661602     0.62100
F1333       F  0.12852455  0.98600708  0.14690893    -0.23000
F1334       F  0.15667310  0.94826800  0.16393251    -0.20400
F1335       F  0.11372206  0.94896115  0.18193690    -0.20000
F1336       F  0.11485057  0.91388701  0.50760267    -0.20100
F1337       F  0.08579854  0.88650717  0.03421073    -0.20400
F1338       F  0.12827599  0.87033562  0.03038632    -0.23100
C1339       C  0.36777543  0.58255093  0.08135176    -0.05900
C1340       C  0.37554138  0.60175456  0.10595608     0.00000
C1341       C  0.40324595  0.60619680  0.10913157    -0.08600
C1342       C  0.42114452  0.58962859  0.08926693    -0.05900
C1343       C  0.41337924  0.56966611  0.06559611     0.00000
C1344       C  0.38601837  0.56663373  0.06094052    -0.08500
C1345       C  0.37567054  0.54738923  0.03443865     0.61900
H1346       H  0.34724587  0.57999374  0.07734803     0.12600
H1347       H  0.44200239  0.59249247  0.09276455     0.12600
C1348       C  0.41666219  0.62765173  0.13202421     0.62100
F1349       F  0.34632111  0.53855441  0.54344278    -0.23000
F1350       F  0.38160427  0.50600863  0.54946311    -0.20400
F1351       F  0.38238836  0.54644002  0.51253054    -0.20000
F1352       F  0.43332608  0.60867438  0.15015164    -0.20100
F1353       F  0.40032340  0.64483903  0.15230738    -0.20400
F1354       F  0.43174970  0.64979885  0.11478666    -0.23100
C1355       C  0.10726621  0.62657412  0.08537977    -0.05900
C1356       C  0.13181669  0.61211790  0.09315876     0.00000
C1357       C  0.13564399  0.57846547  0.08656097    -0.08600
C1358       C  0.11568935  0.56235193  0.07151608    -0.05900
C1359       C  0.09179579  0.57741083  0.06342258     0.00000
C1360       C  0.08770398  0.61046056  0.07000408    -0.08500
C1361       C  0.06286022  0.62927498  0.06095046     0.61900
H1362       H  0.10228026  0.65051250  0.09290622     0.12600
H1363       H  0.11855037  0.53720149  0.06603986     0.12600
C1364       C  0.16040919  0.55845072  0.09386632     0.62100
F1365       F  0.06545133  0.66213955  0.06377083    -0.23000
F1366       F  0.04166929  0.61984575  0.08036404    -0.20400
F1367       F  0.05767472  0.62398980  0.02995720    -0.20000
F1368       F  0.16889398  0.56435740  0.12341325    -0.20100
F1369       F  0.18010844  0.56460800  0.07119131    -0.20400
F1370       F  0.15599972  0.52582654  0.09322213    -0.23100
C1371       C  0.43192268  0.89455171  0.40606305    -0.05900
C1372       C  0.42346280  0.91360286  0.43149514     0.00000
C1373       C  0.39624671  0.91319789  0.44145494    -0.08600
C1374       C  0.37913432  0.89391993  0.42551994    -0.05900
C1375       C  0.38697926  0.87704165  0.39828513     0.00000
C1376       C  0.41467717  0.87563119  0.38980132    -0.08500
C1377       C  0.42780401  0.85597596  0.36344022     0.61900
H1378       H  0.45260794  0.89451134  0.39838494     0.12600
H1379       H  0.35930046  0.89195052  0.43506975     0.12600
C1380       C  0.38451132  0.93325621  0.46827572     0.62100
F1381       F  0.43346988  0.87620564  0.33777670    -0.23000
F1382       F  0.41289380  0.83114072  0.35400713    -0.20400
F1383       F  0.45130667  0.84215077  0.37331210    -0.20000
F1384       F  0.35801805  0.92742785  0.47484194    -0.20100
F1385       F  0.38646163  0.96566428  0.46032207    -0.20400
F1386       F  0.39764149  0.92619205  0.49540346    -0.23100
C1387       C  0.38808847  0.56613075  0.38002355    -0.05900
C1388       C  0.37587690  0.59433016  0.39249696     0.00000
C1389       C  0.38047777  0.60081700  0.42458506    -0.08600
C1390       C  0.40103952  0.58376830  0.43956331    -0.05900
C1391       C  0.41517229  0.55847211  0.42519844     0.00000
C1392       C  0.40787153  0.54837516  0.39562448    -0.08500
C1393       C  0.42114036  0.51907559  0.38062649     0.61900
H1394       H  0.38215866  0.55775597  0.35775182     0.12600
H1395       H  0.40588736  0.58993856  0.46314063     0.12600
C1396       C  0.36437101  0.62425771  0.44490890     0.62100
F1397       F  0.40980082  0.51167385  0.35286760    -0.23000
F1398       F  0.41970328  0.99721456  0.40241147    -0.20400
F1399       F  0.44757412  0.52490998  0.37401701    -0.20000
F1400       F  0.34022277  0.63269718  0.43305524    -0.20100
F1401       F  0.37869076  0.65167633  0.44833702    -0.20400
F1402       F  0.35923636  0.61026155  0.47441813    -0.23100
C1403       C  0.13893147  0.91342707  0.39835985    -0.05900
C1404       C  0.13987607  0.87953362  0.40245672     0.00000
C1405       C  0.12336467  0.86546297  0.42686316    -0.08600
C1406       C  0.10284560  0.88457278  0.44048896    -0.05900
C1407       C  0.10048747  0.91769626  0.43365286     0.00000
C1408       C  0.11926996  0.93273021  0.41303103    -0.08500
C1409       C  0.11802632  0.96874810  0.40552609     0.61900
H1410       H  0.15344049  0.92479797  0.38254807     0.12600
H1411       H  0.08912305  0.87384443  0.45781897     0.12600
C1412       C  0.12819347  0.83234755  0.44198214     0.62100
F1413       F  0.13591056  0.97753319  0.38143889    -0.23000
F1414       F  0.12387008  0.98532770  0.43180963    -0.20400
F1415       F  0.09301230  0.97793886  0.39634942    -0.20000
F1416       F  0.12281874  0.83316236  0.47404772    -0.20100
F1417       F  0.15425534  0.82203458  0.43789241    -0.20400
F1418       F  0.11156540  0.81044006  0.42998514    -0.23100
C1419       C  0.40252951  0.90066314  0.06560466    -0.05900
C1420       C  0.41799090  0.92231053  0.08080045     0.00000
C1421       C  0.41085995  0.93026682  0.11206696    -0.08600
C1422       C  0.38946900  0.91461726  0.12765145    -0.05900
C1423       C  0.37606027  0.88939574  0.11413803     0.00000
C1424       C  0.38109565  0.88488280  0.08117693    -0.08500
C1425       C  0.36457423  0.86490771  0.06053719     0.61900
H1426       H  0.40712333  0.89625855  0.04096604     0.12600
H1427       H  0.38332095  0.92222651  0.15085363     0.12600
C1428       C  0.42590107  0.95508903  0.12902816     0.62100
F1429       F  0.35861918  0.88280101  0.03369665    -0.23000
F1430       F  0.34087841  0.85582094  0.07486320    -0.20400
F1431       F  0.37893984  0.83767068  0.05162116    -0.20000
F1432       F  0.42581652  0.98399896  0.11203296    -0.20100
F1433       F  0.45168287  0.94425207  0.13230530    -0.20400
F1434       F  0.41489375  0.96065387  0.15877396    -0.23100
O1435       O  0.46459393  0.92605228  0.94404065    -0.73800
O1436       O  0.43317571  0.95471805  0.97138126    -0.54300
C1437       C  0.44018195  0.93345879  0.95129180     0.78300
O1438       O  0.05505341  0.93929692  0.56704302    -0.60000
O1439       O  0.08465667  0.96559545  0.53393973    -0.53100
C1440       C  0.07880244  0.94650601  0.55742334     0.70300
O1441       O  0.46609156  0.93125784  0.56556463    -0.74600
O1442       O  0.43467516  0.95521021  0.53517858    -0.55100
C1443       C  0.44196352  0.93645939  0.55802826     0.76300
O1444       O  0.05366621  0.92502516  0.94691246    -0.59700
O1445       O  0.08327484  0.95739603  0.96866813    -0.52800
C1446       C  0.07719324  0.93426099  0.95119782     0.72900
Zr1447     Zr  0.00869185  0.94045233  0.96316721     2.54700
O1448       O  0.01079233  0.88331420  0.97747917    -0.80300
O1449       O  0.01097553  0.93152293  0.90685698    -0.93700
Zr1450     Zr  0.00921200  0.95117523  0.55183596     2.64700
O1451       O  0.51520872  0.88968164  0.53874826    -0.98700
O1452       O  0.00827139  0.95873941  0.60830729    -0.80700
O1453       O  0.48531894  0.94406397  0.50046891    -0.84100
O1454       O  0.03501798  0.94775078  0.50415379    -2.18800
O1455       O  0.05204254  0.55252223  0.93190898    -0.67500
O1456       O  0.08339975  0.52819583  0.96150989    -0.52000
C1457       C  0.07622881  0.54733645  0.93909373     0.71300
O1458       O  0.45747594  0.55536871  0.55505941    -0.60400
O1459       O  0.42820019  0.52447515  0.53212209    -0.52400
C1460       C  0.43375961  0.54717154  0.55020862     0.73100
O1461       O  0.04757578  0.56368935  0.55603221    -0.71800
O1462       O  0.08034092  0.53487672  0.53059307    -0.50500
C1463       C  0.07208641  0.55725590  0.54910922     0.74500
O1464       O  0.46076572  0.55319512  0.93173867    -0.67100
O1465       O  0.43069210  0.52580261  0.96317919    -0.54300
C1466       C  0.43695127  0.54607812  0.94086396     0.72900
Zr1467     Zr  0.50604399  0.53725651  0.94505390     2.77500
O1468       O  0.50418781  0.59509393  0.93383530    -0.97900
O1469       O  0.50636231  0.52647098  0.88917409    -0.78700
Zr1470     Zr  0.50323674  0.54174836  0.54170160     2.70100
O1471       O  0.00107195  0.60339379  0.53522874    -0.79900
O1472       O  0.50195881  0.54662790  0.59856664    -0.99000
Zr1473     Zr  0.45725223  0.99141965  0.00163637     2.21500
Zr1474     Zr  0.05798908  0.49674243  0.49958489     2.11100
O1475       O  0.03139547  0.54310401  0.99396181    -2.47700
O1476       O  0.47944295  0.54180132  0.99202689    -0.79700
O1477       O  0.03454169  0.49018825  0.95268559    -0.71900
O1478       O  0.48211941  0.99400429  0.54477119    -2.32900
O1479       O  0.48267192  0.98888636  0.95341630    -2.29100
O1480       O  0.03170140  0.49825300  0.54732393    -0.73700
H1481       H  0.04725719  0.92960777  0.50575799     0.78300
H1482       H  0.47040457  0.99405183  0.56329435     0.79400
H1483       H  0.04200733  0.56207885  0.99189264     0.81600
H1484       H  0.47153275  0.98773530  0.93570466     0.79200
H1485       H  0.50967543  0.91706539  0.60705951     0.42300
H1486       H  0.01517749  0.53203788  0.60671413     0.41300
H1487       H  0.48620121  0.60292423  0.51688945     0.40900
H1488       H  0.02166701  0.60327818  0.94984254     0.38900
H1489       H  0.01485410  0.54841194  0.88193975     0.42000
H1490       H  0.49812755  0.95018574  0.89366064     0.36800
H1491       H  0.52466392  0.87793050  0.97919912     0.42900
H1492       H  0.02818253  0.88633531  0.54529025     0.39300
H1493       H  0.51363948  0.59800462  0.91312365     0.44200
H1494       H  0.00843268  0.90812770  0.90506531     0.43000
H1495       H  0.01692893  0.88868089  0.58000509     0.43100
H1496       H  0.49072260  0.52885453  0.60676590     0.43400
C1497       C  0.15191361  0.61828924  0.85733098     0.86400
C1498       C  0.14769552  0.61607927  0.82199770    -0.53900
C1499       C  0.16485539  0.63343009  0.80328608     0.09300
C1500       C  0.18649181  0.64945610  0.82153587     0.20200
C1501       C  0.18072029  0.60565565  0.86025942    -0.54600
C1502       C  0.19881448  0.62211830  0.84175450     0.09400
C1503       C  0.15295868  0.65433776  0.86379528    -0.54100
C1504       C  0.17152843  0.67065865  0.84588382     0.10000
H1505       H  0.13251470  0.60198069  0.81231152     0.14500
H1506       H  0.20123715  0.66263889  0.80639558     0.00200
H1507       H  0.18670058  0.58627979  0.87628774     0.14800
H1508       H  0.13985361  0.66591862  0.88111506     0.14600
C1509       C  0.15479181  0.86131033  0.87494954     0.86400
C1510       C  0.15120459  0.82485579  0.87043897    -0.53900
C1511       C  0.17035613  0.81038371  0.85130397     0.09300
C1512       C  0.19106708  0.83437504  0.83797145     0.20200
C1513       C  0.18301522  0.86449736  0.88559995    -0.54600
C1514       C  0.20185530  0.85010787  0.86677522     0.09400
C1515       C  0.15547161  0.87453316  0.84073705    -0.54100
C1516       C  0.17445277  0.86102658  0.82148228     0.10000
H1517       H  0.13481064  0.81149651  0.88062315     0.14500
H1518       H  0.20740613  0.82400085  0.82322453     0.00200
H1519       H  0.18775842  0.87757213  0.90621500     0.14800
H1520       H  0.14027447  0.89049610  0.83126402     0.14600
C1521       C  0.15804107  0.88064469  0.63279807     0.86400
C1522       C  0.15372208  0.88457444  0.66861288    -0.53900
C1523       C  0.16823348  0.86373303  0.68653425     0.09300
C1524       C  0.18459216  0.83894561  0.66735502     0.20200
C1525       C  0.18833586  0.88123690  0.62656164    -0.54600
C1526       C  0.20237371  0.85913157  0.64427861     0.09400
C1527       C  0.15105436  0.84512740  0.62855670    -0.54100
C1528       C  0.16427816  0.82331892  0.64687481     0.10000
H1529       H  0.13989162  0.90135898  0.67955215     0.14500
H1530       H  0.19577378  0.82139376  0.68220782     0.00200
H1531       H  0.19770830  0.89880405  0.61067610     0.14800
H1532       H  0.13692292  0.83752863  0.61205121     0.14600
C1533       C  0.15066189  0.63100099  0.61321043     0.86400
C1534       C  0.14724508  0.66856080  0.61063577    -0.53900
C1535       C  0.16224880  0.68488483  0.63042258     0.09300
C1536       C  0.17929417  0.66271703  0.65075356     0.20200
C1537       C  0.18082225  0.62596533  0.60750776    -0.54600
C1538       C  0.19582971  0.64249107  0.62713560     0.09400
C1539       C  0.14549016  0.62267039  0.64837993    -0.54100
C1540       C  0.16067193  0.63883055  0.66782279     0.10000
H1541       H  0.13554081  0.68168327  0.59359037     0.14500
H1542       H  0.19081480  0.67624074  0.66723981     0.00200
H1543       H  0.18980870  0.61057196  0.59010013     0.14800
H1544       H  0.13095891  0.60544813  0.65708783     0.14600
C1545       C  0.35646566  0.61930967  0.87305314     0.86400
C1546       C  0.35651048  0.65638979  0.87601873    -0.53900
C1547       C  0.33904359  0.67375119  0.85750991     0.09300
C1548       C  0.32454661  0.65120886  0.83619462     0.20200
C1549       C  0.32740535  0.60987539  0.87761992    -0.54600
C1550       C  0.31079297  0.62676680  0.85859692     0.09400
C1551       C  0.36323972  0.61556167  0.83771472    -0.54100
C1552       C  0.34659932  0.63199295  0.81861796     0.10000
H1553       H  0.37024622  0.66789671  0.89049708     0.14500
H1554       H  0.31021059  0.66198837  0.82036362     0.00200
H1555       H  0.32078991  0.59075494  0.89380551     0.14800
H1556       H  0.37988604  0.60143367  0.82818631     0.14600
C1557       C  0.35479866  0.61653680  0.62974671     0.86400
C1558       C  0.35851803  0.60784563  0.66449552    -0.53900
C1559       C  0.34241130  0.62471807  0.68465579     0.09300
C1560       C  0.32340609  0.64894188  0.66836231     0.20200
C1561       C  0.32505348  0.61121920  0.62576345    -0.54600
C1562       C  0.30850334  0.62833358  0.64569735     0.09400
C1563       C  0.35689531  0.65334249  0.62606334    -0.54100
C1564       C  0.34109643  0.67046540  0.64658522     0.10000
H1565       H  0.37351324  0.59070613  0.67255020     0.14500
H1566       H  0.31079868  0.66275514  0.68531216     0.00200
H1567       H  0.31686092  0.59658447  0.60833618     0.14800
H1568       H  0.37049718  0.66491498  0.60907519     0.14600
C1569       C  0.36335918  0.86507802  0.63607686     0.86400
C1570       C  0.36675862  0.82856172  0.63099273    -0.53900
C1571       C  0.35127592  0.80971973  0.65072485     0.09300
C1572       C  0.33305268  0.82923318  0.67348169     0.20200
C1573       C  0.33356403  0.87242785  0.63351196    -0.54600
C1574       C  0.31755714  0.85356166  0.65265449     0.09400
C1575       C  0.36811885  0.86782390  0.67168341    -0.54100
C1576       C  0.35218553  0.84946725  0.69121009     0.10000
H1577       H  0.38019091  0.81839755  0.61318393     0.14500
H1578       H  0.32001308  0.81383111  0.68866995     0.00200
H1579       H  0.32577767  0.89056374  0.61724607     0.14800
H1580       H  0.38316853  0.88205460  0.68141827     0.14600
C1581       C  0.36141672  0.86638306  0.87994428     0.86400
C1582       C  0.36480419  0.87471042  0.84460504    -0.53900
C1583       C  0.34766750  0.85985448  0.82655064     0.09300
C1584       C  0.32804340  0.83851743  0.84530849     0.20200
C1585       C  0.33174511  0.87437189  0.88848898    -0.54600
C1586       C  0.31455266  0.86049359  0.86953885     0.09400
C1587       C  0.36238689  0.82918797  0.88267140    -0.54100
C1588       C  0.34467113  0.81430436  0.86490823     0.10000
H1589       H  0.38068832  0.88937580  0.83461119     0.14500
H1590       H  0.31359605  0.82751261  0.83034599     0.00200
H1591       H  0.32431922  0.88722764  0.90890015     0.14800
H1592       H  0.37603238  0.81602696  0.89742276     0.14600
C1593       C  0.34673733  0.88192441  0.73908228    -0.05900
C1594       C  0.35245134  0.85166619  0.72611475     0.00000
C1595       C  0.35885783  0.82520248  0.74645992    -0.08600
C1596       C  0.35844991  0.82984128  0.77895029    -0.05900
C1597       C  0.35058801  0.85920827  0.79185852     0.00000
C1598       C  0.34469363  0.88591165  0.77180845    -0.08500
C1599       C  0.33478133  0.91769770  0.78489636     0.61900
H1600       H  0.34298947  0.90227907  0.72329813     0.12600
H1601       H  0.36417652  0.81034166  0.79482170     0.12600
C1602       C  0.36741112  0.79261052  0.73432039     0.62100
F1603       F  0.32909814  0.94019130  0.76133939    -0.23000
F1604       F  0.35353926  0.93035726  0.80320603    -0.20400
F1605       F  0.31190000  0.91263052  0.80297064    -0.20000
F1606       F  0.38818354  0.79643630  0.71275497    -0.20100
F1607       F  0.34667429  0.77844921  0.72061419    -0.20400
F1608       F  0.37589806  0.77188717  0.75806397    -0.23100
C1609       C  0.36813060  0.71887152  0.65127481    -0.05900
C1610       C  0.34296280  0.70625235  0.64832729     0.00000
C1611       C  0.32123934  0.72791180  0.64426866    -0.08600
C1612       C  0.32516483  0.76120968  0.64614351    -0.05900
C1613       C  0.35027205  0.77390004  0.64938330     0.00000
C1614       C  0.37249744  0.75220251  0.65123989    -0.08500
C1615       C  0.40125872  0.76149811  0.65289360     0.61900
H1616       H  0.38488165  0.70226850  0.65326732     0.12600
H1617       H  0.30851128  0.77791415  0.64398405     0.12600
C1618       C  0.29456367  0.71652371  0.63519659     0.62100
F1619       F  0.41236806  0.74530458  0.67815223    -0.23000
F1620       F  0.40498997  0.79385012  0.65630437    -0.20400
F1621       F  0.41485186  0.75226990  0.62562692    -0.20000
F1622       F  0.28196918  0.70089228  0.66043701    -0.20100
F1623       F  0.29791520  0.69603346  0.61032863    -0.20400
F1624       F  0.27834091  0.74195814  0.62569561    -0.23100
C1625       C  0.33787016  0.60174788  0.77195991    -0.05900
C1626       C  0.34860102  0.62909897  0.78422334     0.00000
C1627       C  0.36159172  0.65157245  0.76361116    -0.08600
C1628       C  0.35858658  0.64917776  0.73124091    -0.05900
C1629       C  0.34574191  0.62328521  0.71894400     0.00000
C1630       C  0.33743261  0.59746072  0.73947538    -0.08500
C1631       C  0.32869761  0.56480129  0.72933095     0.61900
H1632       H  0.33016640  0.58316170  0.78804462     0.12600
H1633       H  0.36699162  0.66737753  0.71521576     0.12600
C1634       C  0.38014173  0.67692911  0.77385911     0.62100
F1635       F  0.34606051  0.54129183  0.74040673    -0.23000
F1636       F  0.32801546  0.56227462  0.69716784    -0.20400
F1637       F  0.30377202  0.55864799  0.74237673    -0.20000
F1638       F  0.40551516  0.66898134  0.76292840    -0.20100
F1639       F  0.38037785  0.67953572  0.80605131    -0.20400
F1640       F  0.37309680  0.70662985  0.76084404    -0.23100
C1641       C  0.34167118  0.72411261  0.88783778    -0.05900
C1642       C  0.33593484  0.71031503  0.85910467     0.00000
C1643       C  0.32826548  0.73217376  0.83421152    -0.08600
C1644       C  0.33336472  0.76514496  0.83678698    -0.05900
C1645       C  0.34078463  0.77848074  0.86481290     0.00000
C1646       C  0.34238036  0.75761198  0.89173780    -0.08500
C1647       C  0.34334950  0.76929971  0.92509741     0.61900
H1648       H  0.34455490  0.70848643  0.90826581     0.12600
H1649       H  0.33060779  0.78099973  0.81668034     0.12600
C1650       C  0.31233687  0.72311283  0.80649796     0.62100
F1651       F  0.33008909  0.74847317  0.94593994    -0.23000
F1652       F  0.33118091  0.79926623  0.92830451    -0.20400
F1653       F  0.36932837  0.77034213  0.93352708    -0.20000
F1654       F  0.28865733  0.71034485  0.81764693    -0.20100
F1655       F  0.32623575  0.70168305  0.78778401    -0.20400
F1656       F  0.30595820  0.74948389  0.78733106    -0.23100
C1657       C  0.23378882  0.63569750  0.66021320    -0.05900
C1658       C  0.22497007  0.63861044  0.62946030     0.00000
C1659       C  0.24401026  0.63788339  0.60383501    -0.08600
C1660       C  0.27076040  0.63340985  0.61064206    -0.05900
C1661       C  0.27938851  0.63009580  0.64156700     0.00000
C1662       C  0.26026691  0.63032733  0.66679190    -0.08500
C1663       C  0.26611237  0.62333611  0.70082888     0.61900
H1664       H  0.21957093  0.63637961  0.67992356     0.12600
H1665       H  0.28533942  0.63390521  0.59121813     0.12600
C1666       C  0.23866865  0.64307249  0.56910696     0.62100
F1667       F  0.24665874  0.60439298  0.71505115    -0.23000
F1668       F  0.26691612  0.65183561  0.71658389    -0.20400
F1669       F  0.28950765  0.60657950  0.70355208    -0.20000
F1670       F  0.21297332  0.65169931  0.56293601    -0.20100
F1671       F  0.24531874  0.61507293  0.55357253    -0.20400
F1672       F  0.25439807  0.66745654  0.55659797    -0.23100
C1673       C  0.18563242  0.77090299  0.63725932    -0.05900
C1674       C  0.16192123  0.78785075  0.64373021     0.00000
C1675       C  0.13770127  0.77089784  0.64410976    -0.08600
C1676       C  0.13872074  0.73755216  0.63864338    -0.05900
C1677       C  0.16261045  0.72078567  0.63217591     0.00000
C1678       C  0.18635583  0.73825731  0.62992038    -0.08500
C1679       C  0.21235647  0.72398286  0.61743141     0.61900
H1680       H  0.20393190  0.78382595  0.63666552     0.12600
H1681       H  0.12056624  0.72422962  0.64012390     0.12600
C1682       C  0.11025034  0.78534171  0.65112815     0.62100
F1683       F  0.20802313  0.70236866  0.59455673    -0.23000
F1684       F  0.22570746  0.70912600  0.64166130    -0.20400
F1685       F  0.22821346  0.74752081  0.60352310    -0.20000
F1686       F  0.09509052  0.78215037  0.62526286    -0.20100
F1687       F  0.10996598  0.81736358  0.65840257    -0.20400
F1688       F  0.09848916  0.76866545  0.67644303    -0.23100
C1689       C  0.24333450  0.86173653  0.67387960    -0.05900
C1690       C  0.23207028  0.85740682  0.64490655     0.00000
C1691       C  0.24916863  0.85057876  0.61844971    -0.08600
C1692       C  0.27684655  0.84934671  0.62212123    -0.05900
C1693       C  0.28798905  0.85480806  0.65109793     0.00000
C1694       C  0.27084539  0.86178613  0.67734063    -0.08500
C1695       C  0.28124173  0.87154820  0.70837296     0.61900
H1696       H  0.23029587  0.86540271  0.69407358     0.12600
H1697       H  0.29014880  0.84408641  0.60222436     0.12600
C1698       C  0.23847524  0.84332838  0.58680023     0.62100
F1699       F  0.26119686  0.88203478  0.72886271    -0.23000
F1700       F  0.29840671  0.89658285  0.70303248    -0.20400
F1701       F  0.29391374  0.84584252  0.72299579    -0.20000
F1702       F  0.22732903  0.87088918  0.57349853    -0.20100
F1703       F  0.21958104  0.81999277  0.59043527    -0.20400
F1704       F  0.25819952  0.83210061  0.56606875    -0.23100
C1705       C  0.15016557  0.85296545  0.77374137    -0.05900
C1706       C  0.17258672  0.86484636  0.78699350     0.00000
C1707       C  0.19139452  0.88132797  0.76767050    -0.08600
C1708       C  0.18851618  0.88214082  0.73487180    -0.05900
C1709       C  0.16827770  0.86548210  0.72133297     0.00000
C1710       C  0.14817398  0.85172359  0.74109362    -0.08500
C1711       C  0.12527449  0.83480566  0.72785390     0.61900
H1712       H  0.13475684  0.84313329  0.78936611     0.12600
H1713       H  0.20201518  0.89577895  0.71968031     0.12600
C1714       C  0.21369672  0.89859540  0.78194801     0.62100
F1715       F  0.10765367  0.82357593  0.75119172    -0.23000
F1716       F  0.13499694  0.80873918  0.71124469    -0.20400
F1717       F  0.11156891  0.85578978  0.70831465    -0.20000
F1718       F  0.23125783  0.87622709  0.79456146    -0.20100
F1719       F  0.20369591  0.91826928  0.80547159    -0.20400
F1720       F  0.22719908  0.91778421  0.75988182    -0.23100
C1721       C  0.24117832  0.88355206  0.86952800    -0.05900
C1722       C  0.23043261  0.85280472  0.87195588     0.00000
C1723       C  0.24700435  0.82581698  0.87881167    -0.08600
C1724       C  0.27425515  0.83029623  0.88003337    -0.05900
C1725       C  0.28541965  0.86063939  0.87471380     0.00000
C1726       C  0.26851700  0.88814235  0.87045840    -0.08500
C1727       C  0.27749090  0.92257777  0.86569579     0.61900
H1728       H  0.22809862  0.90419591  0.86537431     0.12600
H1729       H  0.28733498  0.80962370  0.88381731     0.12600
C1730       C  0.23624887  0.79240587  0.88477091     0.62100
F1731       F  0.26800937  0.93534615  0.83787286    -0.23000
F1732       F  0.30453287  0.92555728  0.86443964    -0.20400
F1733       F  0.26706849  0.94065467  0.89021405    -0.20000
F1734       F  0.22869266  0.78027031  0.85687414    -0.20100
F1735       F  0.21486250  0.79374160  0.90605275    -0.20400
F1736       F  0.25496325  0.77128673  0.89714147    -0.23100
C1737       C  0.17254213  0.60886806  0.75151066    -0.05900
C1738       C  0.16255977  0.63519300  0.76861348     0.00000
C1739       C  0.14840830  0.66024570  0.75261587    -0.08600
C1740       C  0.14841670  0.66034384  0.71966687    -0.05900
C1741       C  0.15945092  0.63480361  0.70253148     0.00000
C1742       C  0.17061550  0.60774869  0.71866635    -0.08500
C1743       C  0.17943274  0.57738238  0.70177302     0.61900
H1744       H  0.18119774  0.58865669  0.76433092     0.12600
H1745       H  0.13899377  0.68032653  0.70709803     0.12600
C1746       C  0.13156625  0.68633231  0.76837683     0.62100
F1747       F  0.19153755  0.55513454  0.72168455    -0.23000
F1748       F  0.19714969  0.58437529  0.67714514    -0.20400
F1749       F  0.15765565  0.56324158  0.69020494    -0.20000
F1750       F  0.14020123  0.71615977  0.75796175    -0.20100
F1751       F  0.13184008  0.68479385  0.80065481    -0.20400
F1752       F  0.10566920  0.68356969  0.76006237    -0.23100
C1753       C  0.23646796  0.62852256  0.87577120    -0.05900
C1754       C  0.22758530  0.61914648  0.84679564     0.00000
C1755       C  0.24609883  0.60852273  0.82336733    -0.08600
C1756       C  0.27318023  0.60988294  0.82889105    -0.05900
C1757       C  0.28211649  0.62105246  0.85716269     0.00000
C1758       C  0.26354955  0.63014118  0.88131912    -0.08500
C1759       C  0.27214666  0.64297426  0.91211942     0.61900
H1760       H  0.22193543  0.63556830  0.89374719     0.12600
H1761       H  0.28767971  0.60313668  0.81069888     0.12600
C1762       C  0.23728270  0.59552489  0.79290349     0.62100
F1763       F  0.25074942  0.65205921  0.93152849    -0.23000
F1764       F  0.28755873  0.66964261  0.90626157    -0.20400
F1765       F  0.28650962  0.61948235  0.92804001    -0.20000
F1766       F  0.22604832  0.62016073  0.77513093    -0.20100
F1767       F  0.21902681  0.57178800  0.79930785    -0.20400
F1768       F  0.25821605  0.58216039  0.77539779    -0.23100
C1769       C  0.17799713  0.72417502  0.82021848    -0.05900
C1770       C  0.17552719  0.70596441  0.84833873     0.00000
C1771       C  0.17409241  0.72222068  0.87717688    -0.08600
C1772       C  0.17138162  0.75594875  0.87643727    -0.05900
C1773       C  0.17242769  0.77443742  0.84819163     0.00000
C1774       C  0.17625805  0.75806953  0.81926777    -0.08500
C1775       C  0.17449737  0.77469778  0.78714798     0.61900
H1776       H  0.17934648  0.71140478  0.79848898     0.12600
H1777       H  0.16922775  0.76817182  0.89855208     0.12600
C1778       C  0.17649308  0.70563256  0.90924486     0.62100
F1779       F  0.17933410  0.75375348  0.76283533    -0.23000
F1780       F  0.19270310  0.79842720  0.78245758    -0.20400
F1781       F  0.14924637  0.78725721  0.78464841    -0.20000
F1782       F  0.18623092  0.67440447  0.90742658    -0.20100
F1783       F  0.15202967  0.70560323  0.92498432    -0.20400
F1784       F  0.19380396  0.72216605  0.92667022    -0.23100
C1785       C  0.08882681  0.57732948  0.89021266    -0.05900
C1786       C  0.09656700  0.56500454  0.91955823     0.00000
C1787       C  0.12165925  0.57333687  0.93009990    -0.08600
C1788       C  0.13887207  0.59042368  0.90913418    -0.05900
C1789       C  0.13129587  0.60162920  0.87917505     0.00000
C1790       C  0.10430380  0.59874846  0.87200315    -0.08500
C1791       C  0.08934693  0.62001693  0.84869105     0.61900
H1792       H  0.06921809  0.57270954  0.88250117     0.12600
H1793       H  0.15820193  0.59622820  0.91667271     0.12600
C1794       C  0.12992663  0.56630638  0.96357001     0.62100
F1795       F  0.08386737  0.60256491  0.82277725    -0.23000
F1796       F  0.10263864  0.64733265  0.83916395    -0.20400
F1797       F  0.06561973  0.63050169  0.86280588    -0.20000
F1798       F  0.13330219  0.53352844  0.96894394    -0.20100
F1799       F  0.11082966  0.57840507  0.98456499    -0.20400
F1800       F  0.15352408  0.58056210  0.96946815    -0.23100
C1801       C  0.10775310  0.94551907  0.60291388    -0.05900
C1802       C  0.10113027  0.93193991  0.57475203     0.00000
C1803       C  0.11687325  0.90615725  0.56279487    -0.08600
C1804       C  0.13756189  0.89329302  0.58071998    -0.05900
C1805       C  0.14213460  0.90394316  0.61108727     0.00000
C1806       C  0.12900820  0.93325233  0.62039310    -0.08500
C1807       C  0.13817071  0.95462607  0.64581897     0.61900
H1808       H  0.09683214  0.96683690  0.61068975     0.12600
H1809       H  0.14942916  0.87325000  0.57184115     0.12600
C1810       C  0.11116143  0.89137061  0.53183514     0.62100
F1811       F  0.13830049  0.98626550  0.63493904    -0.23000
F1812       F  0.16362116  0.94681158  0.65431141    -0.20400
F1813       F  0.12083638  0.95288500  0.67180686    -0.20000
F1814       F  0.11679568  0.92030627  0.01415982    -0.20100
F1815       F  0.08535770  0.88122331  0.53264168    -0.20400
F1816       F  0.12767188  0.86504733  0.52573708    -0.23100
C1817       C  0.36709294  0.57656585  0.58673998    -0.05900
C1818       C  0.37531921  0.59893903  0.60846430     0.00000
C1819       C  0.40303723  0.60439203  0.60956521    -0.08600
C1820       C  0.42038124  0.58791519  0.58895430    -0.05900
C1821       C  0.41225333  0.56506760  0.56803585     0.00000
C1822       C  0.38479817  0.55990759  0.56620269    -0.08500
C1823       C  0.37369079  0.53748171  0.54272004     0.61900
H1824       H  0.34665972  0.57108637  0.58581030     0.12600
H1825       H  0.44119950  0.59286949  0.59005276     0.12600
C1826       C  0.41699673  0.62680941  0.63102952     0.62100
F1827       F  0.34858381  0.55115895  0.03216011    -0.23000
F1828       F  0.38115724  0.51491890  0.03957113    -0.20400
F1829       F  0.38728652  0.55764770  0.00600641    -0.20000
F1830       F  0.43659912  0.60939469  0.64618792    -0.20100
F1831       F  0.40146601  0.64126897  0.65406309    -0.20400
F1832       F  0.42876782  0.65092673  0.61263223    -0.23100
C1833       C  0.10840278  0.62616373  0.58395092    -0.05900
C1834       C  0.13240788  0.61118316  0.59304732     0.00000
C1835       C  0.13577321  0.57722922  0.58751078    -0.08600
C1836       C  0.11560354  0.56113199  0.57294079    -0.05900
C1837       C  0.09227075  0.57672449  0.56373158     0.00000
C1838       C  0.08897173  0.61014931  0.56838946    -0.08500
C1839       C  0.06524539  0.62943858  0.55668702     0.61900
H1840       H  0.10369169  0.65051802  0.59037139     0.12600
H1841       H  0.11790919  0.53568262  0.56847412     0.12600
C1842       C  0.16039401  0.55696318  0.59495072     0.62100
F1843       F  0.06894645  0.66228974  0.55750635    -0.23000
F1844       F  0.04301490  0.62237750  0.57536871    -0.20400
F1845       F  0.06111477  0.62220954  0.52583186    -0.20000
F1846       F  0.16920856  0.56330811  0.62421835    -0.20100
F1847       F  0.17998066  0.56254218  0.57194814    -0.20400
F1848       F  0.15564506  0.52432900  0.59506076    -0.23100
C1849       C  0.42709336  0.88996529  0.91663831    -0.05900
C1850       C  0.41909897  0.91647768  0.93478413     0.00000
C1851       C  0.39197216  0.92659699  0.93487359    -0.08600
C1852       C  0.37457814  0.90990850  0.91666496    -0.05900
C1853       C  0.38241569  0.88302077  0.89868426     0.00000
C1854       C  0.40994857  0.87402740  0.89752214    -0.08500
C1855       C  0.42333517  0.84808248  0.87722841     0.61900
H1856       H  0.44760672  0.88186907  0.91654501     0.12600
H1857       H  0.35468943  0.91925408  0.91554708     0.12600
C1858       C  0.38078224  0.95498239  0.95357294     0.62100
F1859       F  0.44680274  0.85949129  0.86378583    -0.23000
F1860       F  0.40884619  0.83858945  0.85275572    -0.20400
F1861       F  0.42908857  0.82137693  0.89612019    -0.20000
F1862       F  0.35411321  0.96071089  0.94927835    -0.20100
F1863       F  0.39364954  0.98277207  0.94418237    -0.20400
F1864       F  0.38364426  0.94883792  0.98535514    -0.23100
C1865       C  0.38429400  0.56865738  0.88301034    -0.05900
C1866       C  0.37463837  0.59863102  0.89427988     0.00000
C1867       C  0.38213042  0.60719727  0.92476271    -0.08600
C1868       C  0.40349514  0.59034569  0.93831695    -0.05900
C1869       C  0.41507400  0.56282147  0.92480345     0.00000
C1870       C  0.40448287  0.55070609  0.89764736    -0.08500
C1871       C  0.41474097  0.51914502  0.88410021     0.61900
H1872       H  0.37615176  0.55936076  0.86221059     0.12600
H1873       H  0.41056117  0.59800049  0.96047687     0.12600
C1874       C  0.36728096  0.63147129  0.94536189     0.62100
F1875       F  0.40126420  0.51107954  0.85801915    -0.23000
F1876       F  0.42945752  0.99886725  0.89778594    -0.20400
F1877       F  0.44120702  0.52159307  0.87519771    -0.20000
F1878       F  0.34213437  0.63865184  0.93560691    -0.20100
F1879       F  0.38147670  0.65937128  0.94591869    -0.20400
F1880       F  0.36440272  0.61894125  0.97579585    -0.23100
C1881       C  0.12932728  0.91223823  0.88927253    -0.05900
C1882       C  0.13489650  0.87939207  0.89698183     0.00000
C1883       C  0.12452570  0.86701036  0.92667083    -0.08600
C1884       C  0.10550858  0.88576800  0.94359099    -0.05900
C1885       C  0.09860856  0.91716550  0.93381606     0.00000
C1886       C  0.11099747  0.93103308  0.90667420    -0.08500
C1887       C  0.10470611  0.96554521  0.89603348     0.61900
H1888       H  0.13991261  0.92389330  0.86973380     0.12600
H1889       H  0.09592568  0.87600300  0.96494513     0.12600
C1890       C  0.13306007  0.83502593  0.94196320     0.62100
F1891       F  0.11773480  0.97384029  0.86778204    -0.23000
F1892       F  0.11239678  0.98623591  0.91841795    -0.20400
F1893       F  0.07785227  0.96967118  0.89213871    -0.20000
F1894       F  0.12941058  0.83578864  0.97433844    -0.20100
F1895       F  0.15954307  0.82811592  0.93573886    -0.20400
F1896       F  0.11797844  0.81055798  0.93177820    -0.23100
C1897       C  0.40648642  0.89630037  0.56392051    -0.05900
C1898       C  0.42100766  0.92001445  0.57743535     0.00000
C1899       C  0.41440762  0.92880522  0.60857659    -0.08600
C1900       C  0.39422641  0.91234110  0.62565864    -0.05900
C1901       C  0.38098836  0.88624188  0.61340456     0.00000
C1902       C  0.38567716  0.88038561  0.58058816    -0.08500
C1903       C  0.36971089  0.85844142  0.56114346     0.61900
H1904       H  0.41135733  0.89024028  0.53976704     0.12600
H1905       H  0.38860283  0.92054053  0.64877029     0.12600
C1906       C  0.42872673  0.95553916  0.62375152     0.62100
F1907       F  0.36344509  0.87441962  0.53334570    -0.23000
F1908       F  0.34617782  0.84920287  0.57571040    -0.20400
F1909       F  0.38476495  0.83121747  0.55388587    -0.20000
F1910       F  0.42689518  0.98358822  0.60553974    -0.20100
F1911       F  0.45503036  0.94671631  0.62642896    -0.20400
F1912       F  0.41824520  0.96186506  0.65356129    -0.23100
O1913       O  0.96750503  0.42498134  0.44413188    -0.73800
O1914       O  0.93553535  0.45565543  0.46825459    -0.54300
C1915       C  0.94303073  0.43287567  0.44997055     0.78300
O1916       O  0.55333704  0.44076321  0.06690027    -0.60000
O1917       O  0.58322421  0.46589720  0.03335673    -0.53100
C1918       C  0.57711576  0.44749572  0.05717628     0.70300
O1919       O  0.96301086  0.43451462  0.06897507    -0.74600
O1920       O  0.93267838  0.45767937  0.03650032    -0.55100
C1921       C  0.93920885  0.43952268  0.05997105     0.76300
O1922       O  0.55548602  0.42578285  0.44287239    -0.59700
O1923       O  0.58409463  0.45819216  0.46614605    -0.52800
C1924       C  0.57875957  0.43530827  0.44800921     0.72900
Zr1925     Zr  0.51017034  0.44113337  0.45757912     2.54700
O1926       O  0.51368084  0.38267233  0.46257227    -0.80300
O1927       O  0.51083559  0.44206991  0.40023565    -0.93700
Zr1928     Zr  0.50792881  0.45145068  0.05033143     2.64700
O1929       O  0.01054227  0.39127382  0.05371649    -0.98700
O1930       O  0.50557249  0.45762901  0.10701831    -0.80700
O1931       O  0.98346896  0.44460298  0.00596484    -0.84100
O1932       O  0.53424609  0.44714665  0.00321582    -2.18800
O1933       O  0.55154326  0.05902158  0.43224411    -0.67500
O1934       O  0.58349985  0.03263899  0.45938864    -0.52000
C1935       C  0.57592761  0.05349908  0.43857296     0.71300
O1936       O  0.95887334  0.06337392  0.05323679    -0.60400
O1937       O  0.92972300  0.02827348  0.03568001    -0.52400
C1938       C  0.93534099  0.05295074  0.05114059     0.73100
O1939       O  0.54897423  0.06182269  0.05392786    -0.71800
O1940       O  0.58118390  0.03224396  0.02826664    -0.50500
C1941       C  0.57335212  0.05498277  0.04665679     0.74500
O1942       O  0.96168255  0.05434101  0.43394089    -0.67100
O1943       O  0.93170054  0.02742259  0.46589124    -0.54300
C1944       C  0.93794477  0.04742336  0.44325197     0.72900
Zr1945     Zr  0.00644774  0.03874635  0.44812496     2.77500
O1946       O  0.00717239  0.09735886  0.44487689    -0.97900
O1947       O  0.00619286  0.03394791  0.39134215    -0.78700
Zr1948     Zr  0.00431187  0.04765539  0.03951670     2.70100
O1949       O  0.50235773  0.10177851  0.03302397    -0.79900
O1950       O  0.99915109  0.06112230  0.09472369    -0.99000
Zr1951     Zr  0.95699866  0.49315575  0.50067049     2.21500
Zr1952     Zr  0.55807196  0.99379717  0.99802093     2.11100
O1953       O  0.53142019  0.04442473  0.49373306    -2.47700
O1954       O  0.98011394  0.04247828  0.49534763    -0.79700
O1955       O  0.53541192  0.99426790  0.44926431    -0.71900
O1956       O  0.98084232  0.49697604  0.04712154    -2.32900
O1957       O  0.98324090  0.49115655  0.45308541    -2.29100
O1958       O  0.53254322  0.99652155  0.04614144    -0.73700
H1959       H  0.54643972  0.42899440  0.00518539     0.78300
H1960       H  0.96891620  0.49809889  0.06541296     0.79400
H1961       H  0.54156351  0.06380326  0.49257075     0.81600
H1962       H  0.97242427  0.48984918  0.43508987     0.79200
H1963       H  0.99873271  0.47494049  0.11278430     0.42300
H1964       H  0.49942387  0.07041072  0.10210810     0.41300
H1965       H  0.99891162  0.10456694  0.00090987     0.40900
H1966       H  0.49819526  0.10425385  0.42230988     0.38900
H1967       H  0.50003502  0.01713762  0.38664239     0.42000
H1968       H  0.02231575  0.42201014  0.39619948     0.36800
H1969       H  0.02223966  0.37775290  0.44769302     0.42900
H1970       H  0.50178277  0.38512370  0.03815621     0.39300
H1971       H  0.98868703  0.10468958  0.44942254     0.44200
H1972       H  0.52942994  0.43755090  0.39328799     0.43000
H1973       H  0.53015847  0.38747734  0.05080309     0.43100
H1974       H  0.00982144  0.08048209  0.09679613     0.43400
C1975       C  0.65277796  0.12367501  0.35681901     0.86400
C1976       C  0.64814877  0.12101375  0.32159510    -0.53900
C1977       C  0.66556525  0.13732963  0.30224250     0.09300
C1978       C  0.68790824  0.15278111  0.31986979     0.20200
C1979       C  0.68134486  0.11003688  0.35957419    -0.54600
C1980       C  0.69974466  0.12541137  0.34051051     0.09400
C1981       C  0.65492749  0.15977198  0.36246845    -0.54100
C1982       C  0.67379490  0.17499363  0.34398508     0.10000
H1983       H  0.63257791  0.10718919  0.31242662     0.14500
H1984       H  0.70287039  0.16505083  0.30426378     0.00200
H1985       H  0.68703437  0.09078811  0.37588432     0.14800
H1986       H  0.64233977  0.17222204  0.37972485     0.14600
C1987       C  0.65797520  0.36428470  0.37330604     0.86400
C1988       C  0.65403761  0.32824207  0.36729316    -0.53900
C1989       C  0.67255898  0.31452273  0.34689261     0.09300
C1990       C  0.69275714  0.33911664  0.33341827     0.20200
C1991       C  0.68660705  0.36681666  0.38272726    -0.54600
C1992       C  0.70475034  0.35357394  0.36222076     0.09400
C1993       C  0.65734236  0.37924059  0.33984001    -0.54100
C1994       C  0.67540303  0.36640367  0.31892964     0.10000
H1995       H  0.63808247  0.31437677  0.37787569     0.14500
H1996       H  0.70860849  0.32962454  0.31741537     0.00200
H1997       H  0.69211445  0.37855885  0.40380900     0.14800
H1998       H  0.64186200  0.39601164  0.33236597     0.14600
C1999       C  0.65441173  0.37874258  0.13237297     0.86400
C2000       C  0.64851736  0.38085352  0.16801564    -0.53900
C2001       C  0.66338654  0.36052668  0.18588078     0.09300
C2002       C  0.68151237  0.33743424  0.16670404     0.20200
C2003       C  0.68470788  0.38154291  0.12784169    -0.54600
C2004       C  0.69904898  0.35956950  0.14534242     0.09400
C2005       C  0.64923014  0.34307295  0.12621118    -0.54100
C2006       C  0.66284015  0.32141280  0.14443874     0.10000
H2007       H  0.63395034  0.39676459  0.17890701     0.14500
H2008       H  0.69290319  0.32002071  0.18147376     0.00200
H2009       H  0.69374437  0.40024093  0.11304218     0.14800
H2010       H  0.63579458  0.33534569  0.10895220     0.14600
C2011       C  0.65111486  0.12888836  0.11199454     0.86400
C2012       C  0.64838551  0.16640229  0.10796784    -0.53900
C2013       C  0.66329150  0.18308716  0.12755298     0.09300
C2014       C  0.67965771  0.16137567  0.14901120     0.20200
C2015       C  0.68121167  0.12290141  0.10718266    -0.54600
C2016       C  0.69615341  0.13986284  0.12648565     0.09400
C2017       C  0.64515051  0.12213285  0.14735800    -0.54100
C2018       C  0.66032111  0.13867481  0.16659234     0.10000
H2019       H  0.63690898  0.17919632  0.09048612     0.14500
H2020       H  0.69125041  0.17525151  0.16517612     0.00200
H2021       H  0.69016022  0.10662872  0.09049564     0.14800
H2022       H  0.63010677  0.10569329  0.15628917     0.14600
C2023       C  0.85770820  0.11889580  0.37276875     0.86400
C2024       C  0.85716594  0.15587808  0.37631089    -0.53900
C2025       C  0.83948418  0.17315114  0.35806452     0.09300
C2026       C  0.82537177  0.15068353  0.33632859     0.20200
C2027       C  0.82872225  0.10873118  0.37707417    -0.54600
C2028       C  0.81192972  0.12553424  0.35812264     0.09400
C2029       C  0.86458901  0.11595372  0.33730234    -0.54100
C2030       C  0.84770094  0.13233852  0.31850603     0.10000
H2031       H  0.87085340  0.16740856  0.39082656     0.14500
H2032       H  0.81091032  0.16138838  0.32065513     0.00200
H2033       H  0.82226721  0.08950058  0.39322284     0.14800
H2034       H  0.88163862  0.10289191  0.32735379     0.14600
C2035       C  0.85498956  0.11939107  0.13009162     0.86400
C2036       C  0.85965385  0.11245657  0.16485065    -0.53900
C2037       C  0.84331266  0.12935689  0.18461873     0.09300
C2038       C  0.82292181  0.15146804  0.16810746     0.20200
C2039       C  0.82555321  0.11122142  0.12770810    -0.54600
C2040       C  0.80851493  0.12840807  0.14725445     0.09400
C2041       C  0.85523310  0.15597555  0.12467677    -0.54100
C2042       C  0.83905332  0.17307212  0.14474170     0.10000
H2043       H  0.87498148  0.09596735  0.17323014     0.14500
H2044       H  0.81027851  0.16517934  0.18502591     0.00200
H2045       H  0.81809737  0.09378982  0.11225204     0.14800
H2046       H  0.86814003  0.16751306  0.10687419     0.14600
C2047       C  0.85936226  0.36783327  0.13330224     0.86400
C2048       C  0.86260068  0.33158174  0.12705681    -0.53900
C2049       C  0.84803405  0.31221463  0.14723737     0.09300
C2050       C  0.83094629  0.33088712  0.17172874     0.20200
C2051       C  0.82943779  0.37495936  0.13272872    -0.54600
C2052       C  0.81433556  0.35556671  0.15252331     0.09400
C2053       C  0.86587591  0.36960822  0.16844113    -0.54100
C2054       C  0.85097604  0.35067705  0.18853333     0.10000
H2055       H  0.87532003  0.32188849  0.10833659     0.14500
H2056       H  0.81892021  0.31484335  0.18746389     0.00200
H2057       H  0.82086819  0.39312314  0.11708134     0.14800
H2058       H  0.88135326  0.38391571  0.17724690     0.14600
C2059       C  0.86477606  0.36538365  0.37788089     0.86400
C2060       C  0.86897510  0.37319223  0.34239917    -0.53900
C2061       C  0.85207796  0.35824482  0.32398472     0.09300
C2062       C  0.83181389  0.33767758  0.34253502     0.20200
C2063       C  0.83496905  0.37418099  0.38514222    -0.54600
C2064       C  0.81807771  0.36054012  0.36576760     0.09400
C2065       C  0.86522716  0.32826683  0.38108662    -0.54100
C2066       C  0.84758851  0.31343030  0.36320573     0.10000
H2067       H  0.88504905  0.38770960  0.33270993     0.14500
H2068       H  0.81755001  0.32680199  0.32726161     0.00200
H2069       H  0.82674381  0.38755373  0.40472775     0.14800
H2070       H  0.87860146  0.31516815  0.39625558     0.14600
C2071       C  0.84778802  0.38196147  0.23711406    -0.05900
C2072       C  0.85299282  0.35207422  0.22329557     0.00000
C2073       C  0.86106319  0.32545685  0.24251282    -0.08600
C2074       C  0.86123162  0.32905006  0.27521007    -0.05900
C2075       C  0.85438028  0.35834072  0.28911834     0.00000
C2076       C  0.84820423  0.38560366  0.26982631    -0.08500
C2077       C  0.84114860  0.41801191  0.28366300     0.61900
H2078       H  0.84294389  0.40246680  0.22195114     0.12600
H2079       H  0.86695683  0.30892224  0.29037516     0.12600
C2080       C  0.87125436  0.29416624  0.22873073     0.62100
F2081       F  0.83478271  0.44094814  0.26077000    -0.23000
F2082       F  0.86225638  0.42904445  0.29930179    -0.20400
F2083       F  0.81958001  0.41492282  0.30437061    -0.20000
F2084       F  0.89189359  0.30055011  0.20745842    -0.20100
F2085       F  0.85138711  0.27930282  0.21406932    -0.20400
F2086       F  0.88067370  0.27291849  0.25149609    -0.23100
C2087       C  0.86561164  0.22209698  0.14467040    -0.05900
C2088       C  0.84032407  0.20894170  0.14537958     0.00000
C2089       C  0.81796190  0.23012589  0.14425602    -0.08600
C2090       C  0.82185126  0.26350365  0.14514092    -0.05900
C2091       C  0.84713456  0.27657006  0.14528600     0.00000
C2092       C  0.86968789  0.25537932  0.14430005    -0.08500
C2093       C  0.89848753  0.26521394  0.14259512     0.61900
H2094       H  0.88273681  0.20593062  0.14448679     0.12600
H2095       H  0.80492007  0.27998108  0.14503325     0.12600
C2096       C  0.79037520  0.21836731  0.13946211     0.62100
F2097       F  0.91242886  0.24710128  0.16441270    -0.23000
F2098       F  0.90227332  0.29704784  0.14857086    -0.20400
F2099       F  0.90924238  0.25901009  0.11290758    -0.20000
F2100       F  0.78041130  0.20274266  0.16627487    -0.20100
F2101       F  0.79106328  0.19782357  0.11454922    -0.20400
F2102       F  0.77305576  0.24363733  0.13255857    -0.23100
C2103       C  0.83921205  0.10361369  0.27094294    -0.05900
C2104       C  0.84985597  0.13055856  0.28408342     0.00000
C2105       C  0.86197854  0.15438947  0.26423528    -0.08600
C2106       C  0.85867671  0.15322767  0.23184587    -0.05900
C2107       C  0.84615208  0.12753717  0.21881000     0.00000
C2108       C  0.83805366  0.10091620  0.23835050    -0.08500
C2109       C  0.82812294  0.06931642  0.22680970     0.61900
H2110       H  0.83173167  0.08437457  0.28639979     0.12600
H2111       H  0.86661219  0.17221610  0.21638976     0.12600
C2112       C  0.87965823  0.18029570  0.27527791     0.62100
F2113       F  0.84547534  0.04464161  0.23528831    -0.23000
F2114       F  0.82574673  0.06894208  0.19468963    -0.20400
F2115       F  0.80360131  0.06312829  0.24094014    -0.20000
F2116       F  0.90484878  0.17537092  0.26215797    -0.20100
F2117       F  0.88138597  0.18033015  0.30750031    -0.20400
F2118       F  0.87043339  0.21025503  0.26515657    -0.23100
C2119       C  0.84276964  0.22370352  0.38801936    -0.05900
C2120       C  0.83640418  0.20967931  0.35964262     0.00000
C2121       C  0.82851168  0.23136831  0.33479916    -0.08600
C2122       C  0.83488851  0.26404890  0.33636810    -0.05900
C2123       C  0.84291193  0.27769849  0.36399738     0.00000
C2124       C  0.84419373  0.25723714  0.39134008    -0.08500
C2125       C  0.84580981  0.26929665  0.42450195     0.61900
H2126       H  0.84566636  0.20826871  0.40857943     0.12600
H2127       H  0.83274264  0.27933903  0.31570014     0.12600
C2128       C  0.81071033  0.22269642  0.30865936     0.62100
F2129       F  0.83251688  0.24901597  0.44587147    -0.23000
F2130       F  0.83412877  0.29954855  0.42753019    -0.20400
F2131       F  0.87194114  0.26983462  0.43244403    -0.20000
F2132       F  0.78791875  0.20922472  0.32175447    -0.20100
F2133       F  0.82345237  0.20203370  0.28809462    -0.20400
F2134       F  0.80276033  0.24951468  0.29100820    -0.23100
C2135       C  0.73333726  0.13320806  0.16055250    -0.05900
C2136       C  0.72511630  0.13545512  0.12957788     0.00000
C2137       C  0.74451585  0.13396822  0.10445941    -0.08600
C2138       C  0.77114470  0.13028271  0.11198602    -0.05900
C2139       C  0.77938520  0.12880683  0.14317137     0.00000
C2140       C  0.75976349  0.12943575  0.16801371    -0.08500
C2141       C  0.76412699  0.12457534  0.20273422     0.61900
H2142       H  0.71867679  0.13368053  0.17985814     0.12600
H2143       H  0.78595900  0.13008980  0.09281576     0.12600
C2144       C  0.73946757  0.13688210  0.06951720     0.62100
F2145       F  0.74966560  0.09861029  0.21413954    -0.23000
F2146       F  0.75543457  0.15178213  0.21845181    -0.20400
F2147       F  0.78987178  0.11829324  0.20926883    -0.20000
F2148       F  0.71425162  0.14713284  0.06278455    -0.20100
F2149       F  0.74449183  0.10723454  0.05631617    -0.20400
F2150       F  0.75648236  0.15892207  0.05513364    -0.23100
C2151       C  0.68531047  0.27002797  0.13165624    -0.05900
C2152       C  0.66156344  0.28594503  0.14058357     0.00000
C2153       C  0.63787425  0.26802529  0.14314671    -0.08600
C2154       C  0.63934306  0.23476854  0.13763443    -0.05900
C2155       C  0.66318499  0.21892012  0.12914712     0.00000
C2156       C  0.68640732  0.23715185  0.12471251    -0.08500
C2157       C  0.71199611  0.22289513  0.11088444     0.61900
H2158       H  0.70315935  0.28382693  0.12935602     0.12600
H2159       H  0.62160309  0.22075271  0.14069779     0.12600
C2160       C  0.61055620  0.28149631  0.15233860     0.62100
F2161       F  0.70677874  0.20288688  0.08683977    -0.23000
F2162       F  0.72527498  0.20590502  0.13389537    -0.20400
F2163       F  0.72833587  0.24661398  0.09825451    -0.20000
F2164       F  0.59400748  0.27751744  0.12788709    -0.20100
F2165       F  0.61004002  0.31361770  0.15931095    -0.20400
F2166       F  0.60065469  0.26455385  0.17858020    -0.23100
C2167       C  0.74009018  0.36048735  0.17543614    -0.05900
C2168       C  0.72872992  0.35840946  0.14610414     0.00000
C2169       C  0.74575398  0.35386741  0.11909648    -0.08600
C2170       C  0.77338552  0.35227558  0.12260842    -0.05900
C2171       C  0.78470327  0.35583224  0.15182315     0.00000
C2172       C  0.76768179  0.36060321  0.17874388    -0.08500
C2173       C  0.77821756  0.36814192  0.21044140     0.61900
H2174       H  0.72710964  0.36245803  0.19601925     0.12600
H2175       H  0.78657099  0.34871662  0.10222084     0.12600
C2176       C  0.73514278  0.35030227  0.08664734     0.62100
F2177       F  0.75819035  0.37716643  0.23174598    -0.23000
F2178       F  0.79538201  0.39338444  0.20678950    -0.20400
F2179       F  0.79108148  0.34155065  0.22328151    -0.20000
F2180       F  0.72585923  0.37980192  0.07539885    -0.20100
F2181       F  0.71491253  0.32858742  0.08783718    -0.20400
F2182       F  0.75455249  0.33926085  0.06542204    -0.23100
C2183       C  0.64871245  0.35447556  0.27401793    -0.05900
C2184       C  0.67084616  0.36941170  0.28493553     0.00000
C2185       C  0.68773522  0.38641828  0.26358495    -0.08600
C2186       C  0.68406049  0.38390783  0.23121470    -0.05900
C2187       C  0.66446532  0.36436120  0.22021330     0.00000
C2188       C  0.64553788  0.35090373  0.24176746    -0.08500
C2189       C  0.62279505  0.33190721  0.23078579     0.61900
H2190       H  0.63473921  0.34395373  0.29112369     0.12600
H2191       H  0.69638523  0.39723352  0.21427978     0.12600
C2192       C  0.70851618  0.40804679  0.27528985     0.62100
F2193       F  0.60658117  0.32083522  0.25561868    -0.23000
F2194       F  0.63280278  0.30559052  0.21471801    -0.20400
F2195       F  0.60751385  0.35110522  0.21127247    -0.20000
F2196       F  0.72675924  0.38989679  0.29186525    -0.20100
F2197       F  0.69652990  0.43056952  0.29488137    -0.20400
F2198       F  0.72174151  0.42441054  0.25080967    -0.23100
C2199       C  0.74491116  0.38595082  0.36535017    -0.05900
C2200       C  0.73361850  0.35545098  0.36645952     0.00000
C2201       C  0.74980255  0.32788731  0.37240188    -0.08600
C2202       C  0.77709095  0.33151144  0.37371583    -0.05900
C2203       C  0.78881492  0.36161564  0.36986562     0.00000
C2204       C  0.77234883  0.38978299  0.36710517    -0.08500
C2205       C  0.78174246  0.42423664  0.36592014     0.61900
H2206       H  0.73213139  0.40707687  0.36229067     0.12600
H2207       H  0.78976198  0.31037654  0.37697949     0.12600
C2208       C  0.73854590  0.29476106  0.37787250     0.62100
F2209       F  0.77217076  0.44041055  0.33974539    -0.23000
F2210       F  0.80879969  0.42681309  0.36457876    -0.20400
F2211       F  0.77181281  0.43945181  0.39252077    -0.20000
F2212       F  0.72966595  0.28403503  0.35005731    -0.20100
F2213       F  0.71807833  0.29616894  0.40038693    -0.20400
F2214       F  0.75721908  0.27251957  0.38845508    -0.23100
C2215       C  0.67152366  0.11080558  0.25115738    -0.05900
C2216       C  0.66297778  0.13827912  0.26749980     0.00000
C2217       C  0.64958400  0.16356276  0.25083504    -0.08600
C2218       C  0.64909997  0.16252410  0.21790956    -0.05900
C2219       C  0.65884630  0.13580115  0.20148867     0.00000
C2220       C  0.66895658  0.10865401  0.21846024    -0.08500
C2221       C  0.67621016  0.07727623  0.20251464     0.61900
H2222       H  0.67961764  0.09057383  0.26449287     0.12600
H2223       H  0.64035015  0.18260876  0.20480810     0.12600
C2224       C  0.63375386  0.19090177  0.26594691     0.62100
F2225       F  0.68696036  0.05464402  0.22312949    -0.23000
F2226       F  0.69446136  0.08234391  0.17796332    -0.20400
F2227       F  0.65375568  0.06456086  0.19109438    -0.20000
F2228       F  0.64221550  0.21998378  0.25317663    -0.20100
F2229       F  0.63549132  0.19135473  0.29804919    -0.20400
F2230       F  0.60742322  0.18794813  0.25958905    -0.23100
C2231       C  0.73765796  0.13120132  0.37441102    -0.05900
C2232       C  0.72853034  0.12160530  0.34561332     0.00000
C2233       C  0.74677462  0.10924828  0.32271930    -0.08600
C2234       C  0.77392002  0.10909679  0.32855309    -0.05900
C2235       C  0.78313872  0.12016806  0.35676190     0.00000
C2236       C  0.76474921  0.13080307  0.38043892    -0.08500
C2237       C  0.77366205  0.14237845  0.41158387     0.61900
H2238       H  0.72332202  0.13959648  0.39203237     0.12600
H2239       H  0.78828764  0.10122630  0.31065699     0.12600
C2240       C  0.73756668  0.09592091  0.29256229     0.62100
F2241       F  0.75263362  0.15366063  0.43039849    -0.23000
F2242       F  0.79116883  0.16714917  0.40651361    -0.20400
F2243       F  0.78587687  0.11716614  0.42768014    -0.20000
F2244       F  0.72688274  0.12049724  0.27421168    -0.20100
F2245       F  0.71869836  0.07302374  0.29948688    -0.20400
F2246       F  0.75815379  0.08140146  0.27541001    -0.23100
C2247       C  0.68127465  0.22780834  0.31714381    -0.05900
C2248       C  0.67866734  0.21016182  0.34563090     0.00000
C2249       C  0.67742002  0.22701792  0.37408820    -0.08600
C2250       C  0.67451564  0.26062732  0.37265230    -0.05900
C2251       C  0.67510585  0.27857982  0.34408834     0.00000
C2252       C  0.67917172  0.26170235  0.31549408    -0.08500
C2253       C  0.67682802  0.27753123  0.28310183     0.61900
H2254       H  0.68266483  0.21459677  0.29567350     0.12600
H2255       H  0.67247986  0.27318028  0.39457756     0.12600
C2256       C  0.68018248  0.21146719  0.40656227     0.62100
F2257       F  0.68246335  0.25627115  0.25922034    -0.23000
F2258       F  0.69396468  0.30235384  0.27785413    -0.20400
F2259       F  0.65114441  0.28846671  0.28050775    -0.20000
F2260       F  0.68787287  0.17941648  0.40582913    -0.20100
F2261       F  0.65639106  0.21436211  0.42358431    -0.20400
F2262       F  0.69926659  0.22716402  0.42206942    -0.23100
C2263       C  0.58809355  0.08692775  0.39131110    -0.05900
C2264       C  0.59610727  0.07245744  0.41970963     0.00000
C2265       C  0.62181755  0.07890489  0.42970410    -0.08600
C2266       C  0.63930102  0.09579149  0.40880069    -0.05900
C2267       C  0.63171388  0.10819672  0.37921783     0.00000
C2268       C  0.60437595  0.10734478  0.37276539    -0.08500
C2269       C  0.59034596  0.12890138  0.34882764     0.61900
H2270       H  0.56807298  0.08390022  0.38416404     0.12600
H2271       H  0.65899005  0.10018942  0.41605704     0.12600
C2272       C  0.63062155  0.06986568  0.46258497     0.62100
F2273       F  0.58514082  0.11144460  0.32282360    -0.23000
F2274       F  0.60442901  0.15572989  0.33955297    -0.20400
F2275       F  0.56650216  0.14017987  0.36199389    -0.20000
F2276       F  0.63347161  0.03683453  0.46626789    -0.20100
F2277       F  0.61216789  0.08133536  0.48468833    -0.20400
F2278       F  0.65464608  0.08305194  0.46852872    -0.23100
C2279       C  0.60381741  0.44365029  0.10427963    -0.05900
C2280       C  0.59913720  0.43262713  0.07444689     0.00000
C2281       C  0.61622942  0.40882095  0.06108917    -0.08600
C2282       C  0.63548455  0.39390033  0.07986656    -0.05900
C2283       C  0.63855972  0.40248762  0.11127163     0.00000
C2284       C  0.62479736  0.43097643  0.12176539    -0.08500
C2285       C  0.63317219  0.45151494  0.14830567     0.61900
H2286       H  0.59199415  0.46383110  0.11313170     0.12600
H2287       H  0.64785874  0.37460559  0.07034855     0.12600
C2288       C  0.61386805  0.39900255  0.02731433     0.62100
F2289       F  0.63329136  0.48351063  0.13843171    -0.23000
F2290       F  0.65843443  0.44365584  0.15743440    -0.20400
F2291       F  0.61529262  0.44874392  0.17370679    -0.20000
F2292       F  0.61722894  0.41942319  0.51059492    -0.20100
F2293       F  0.58825376  0.39032955  0.02238707    -0.20400
F2294       F  0.63053322  0.37316298  0.01991829    -0.23100
C2295       C  0.86836557  0.08514657  0.08336681    -0.05900
C2296       C  0.87607896  0.10320696  0.10876078     0.00000
C2297       C  0.90378823  0.10660144  0.11285792    -0.08600
C2298       C  0.92168426  0.08892695  0.09391006    -0.05900
C2299       C  0.91390523  0.07012328  0.06937848     0.00000
C2300       C  0.88665612  0.06882254  0.06337485    -0.08500
C2301       C  0.87653469  0.05091645  0.03590717     0.61900
H2302       H  0.84786805  0.08415753  0.07829470     0.12600
H2303       H  0.94250201  0.09024395  0.09848535     0.12600
C2304       C  0.91703982  0.12761355  0.13624206     0.62100
F2305       F  0.84921922  0.05296628  0.53291881    -0.23000
F2306       F  0.88063181  0.01545542  0.54183992    -0.20400
F2307       F  0.88850915  0.05733041  0.50778723    -0.20000
F2308       F  0.93020950  0.10782011  0.15742078    -0.20100
F2309       F  0.90062948  0.14818083  0.15314101    -0.20400
F2310       F  0.93538551  0.14665246  0.11998916    -0.23100
C2311       C  0.60954642  0.12389316  0.08159881    -0.05900
C2312       C  0.63308279  0.10875308  0.09186475     0.00000
C2313       C  0.63630109  0.07466794  0.08691760    -0.08600
C2314       C  0.61676066  0.05875055  0.07100596    -0.05900
C2315       C  0.59375778  0.07446686  0.06090274     0.00000
C2316       C  0.59049228  0.10794129  0.06540284    -0.08500
C2317       C  0.56690827  0.12734151  0.05352249     0.61900
H2318       H  0.60477981  0.14831685  0.08777559     0.12600
H2319       H  0.61908453  0.03325004  0.06675999     0.12600
C2320       C  0.65982248  0.05382076  0.09713745     0.62100
F2321       F  0.57130706  0.16010880  0.05294461    -0.23000
F2322       F  0.54493244  0.12154555  0.07308509    -0.20400
F2323       F  0.56198289  0.11909616  0.02316171    -0.20000
F2324       F  0.66754029  0.06158050  0.12650629    -0.20100
F2325       F  0.68061093  0.05695276  0.07522220    -0.20400
F2326       F  0.65382188  0.02152962  0.09893255    -0.23100
C2327       C  0.93100692  0.39172483  0.41187510    -0.05900
C2328       C  0.92238472  0.41486903  0.43375001     0.00000
C2329       C  0.89468521  0.42033236  0.43864650    -0.08600
C2330       C  0.87735404  0.40405876  0.42010199    -0.05900
C2331       C  0.88572724  0.38128385  0.39750428     0.00000
C2332       C  0.91366604  0.37487619  0.39367335    -0.08500
C2333       C  0.92761256  0.35106298  0.37137858     0.61900
H2334       H  0.95202990  0.38677060  0.40838990     0.12600
H2335       H  0.85691254  0.41041055  0.42329321     0.12600
C2336       C  0.88270465  0.44307087  0.46325736     0.62100
F2337       F  0.94650784  0.36707317  0.35283030    -0.23000
F2338       F  0.91169221  0.33608152  0.35136787    -0.20400
F2339       F  0.94021739  0.32730937  0.38907943    -0.20000
F2340       F  0.85540346  0.44201206  0.46581902    -0.20100
F2341       F  0.88910671  0.47449927  0.45530001    -0.20400
F2342       F  0.89188576  0.43453086  0.49253136    -0.23100
C2343       C  0.88851296  0.07049378  0.38179609    -0.05900
C2344       C  0.87631755  0.09878233  0.39406198     0.00000
C2345       C  0.88180199  0.10634092  0.42562547    -0.08600
C2346       C  0.90271248  0.08967840  0.44035657    -0.05900
C2347       C  0.91629116  0.06369812  0.42640905     0.00000
C2348       C  0.90875968  0.05331227  0.39704492    -0.08500
C2349       C  0.92223546  0.02420425  0.38190906     0.61900
H2350       H  0.88212528  0.06153772  0.35995794     0.12600
H2351       H  0.90824864  0.09666451  0.46341782     0.12600
C2352       C  0.86596090  0.13031010  0.44564258     0.62100
F2353       F  0.91186175  0.01777363  0.35332630    -0.23000
F2354       F  0.91722147  0.49846600  0.40395244    -0.20400
F2355       F  0.94889130  0.02963840  0.37666327    -0.20000
F2356       F  0.84096375  0.13658312  0.43505885    -0.20100
F2357       F  0.87948170  0.15870958  0.44642156    -0.20400
F2358       F  0.86267004  0.11804321  0.47612963    -0.23100
C2359       C  0.63694136  0.41552087  0.39283482    -0.05900
C2360       C  0.63895992  0.38165304  0.39664559     0.00000
C2361       C  0.62419121  0.36686407  0.42229623    -0.08600
C2362       C  0.60405952  0.38515563  0.43767232    -0.05900
C2363       C  0.60081727  0.41827878  0.43162572     0.00000
C2364       C  0.61796076  0.43406846  0.40957110    -0.08500
C2365       C  0.61575202  0.47015321  0.40301815     0.61900
H2366       H  0.65026622  0.42756472  0.37603741     0.12600
H2367       H  0.59140267  0.37377947  0.45575942     0.12600
C2368       C  0.63050287  0.33389865  0.43697337     0.62100
F2369       F  0.63255948  0.48007540  0.37826598    -0.23000
F2370       F  0.62230585  0.48612419  0.42936177    -0.20400
F2371       F  0.59020228  0.47883360  0.39550164    -0.20000
F2372       F  0.62701653  0.33474947  0.46936559    -0.20100
F2373       F  0.65646804  0.32426859  0.43076835    -0.20400
F2374       F  0.61358073  0.31145117  0.42642918    -0.23100
C2375       C  0.90390139  0.39956597  0.06325037    -0.05900
C2376       C  0.91748102  0.42338981  0.07787795     0.00000
C2377       C  0.90832970  0.43367460  0.10772672    -0.08600
C2378       C  0.88741617  0.41729295  0.12337227    -0.05900
C2379       C  0.87606190  0.39002848  0.11082302     0.00000
C2380       C  0.88243370  0.38373730  0.07847146    -0.08500
C2381       C  0.86709285  0.36229259  0.05792156     0.61900
H2382       H  0.90983441  0.39369078  0.03927756     0.12600
H2383       H  0.88009295  0.42572922  0.14590965     0.12600
C2384       C  0.92071725  0.46183192  0.12292075     0.62100
F2385       F  0.86112703  0.37916956  0.03050068    -0.23000
F2386       F  0.84344285  0.35239482  0.07180315    -0.20400
F2387       F  0.88256803  0.33556445  0.05004328    -0.20000
F2388       F  0.91969347  0.48878001  0.10306525    -0.20100
F2389       F  0.94678286  0.45418162  0.12877180    -0.20400
F2390       F  0.90780567  0.46945068  0.15114947    -0.23100
O2391       O  0.96652290  0.42366596  0.94574362    -0.73800
O2392       O  0.93487948  0.45641112  0.96773411    -0.54300
C2393       C  0.94215762  0.43300148  0.95020118     0.78300
O2394       O  0.55301055  0.43590608  0.56827453    -0.60000
O2395       O  0.58289431  0.46355615  0.53675603    -0.53100
C2396       C  0.57676796  0.44413161  0.55983282     0.70300
O2397       O  0.96306228  0.43257847  0.56751339    -0.74600
O2398       O  0.93234012  0.45867883  0.53753558    -0.55100
C2399       C  0.93907664  0.43890226  0.55973512     0.76300
O2400       O  0.55440727  0.42587275  0.94261001    -0.59700
O2401       O  0.58338087  0.45817842  0.96530776    -0.52800
C2402       C  0.57783485  0.43481184  0.94788185     0.72900
Zr2403     Zr  0.50929448  0.44187783  0.95790767     2.54700
O2404       O  0.51132220  0.38459780  0.97173834    -0.80300
O2405       O  0.50957277  0.43227878  0.90180671    -0.93700
Zr2406     Zr  0.50774728  0.44648429  0.55081312     2.64700
O2407       O  0.01383494  0.39125689  0.55201022    -0.98700
O2408       O  0.50355009  0.45456126  0.60715580    -0.80700
O2409       O  0.98352667  0.44528641  0.50506301    -0.84100
O2410       O  0.53455115  0.44450592  0.50371822    -2.18800
O2411       O  0.55148579  0.05399327  0.93238550    -0.67500
O2412       O  0.58281054  0.02710424  0.96008630    -0.52000
C2413       C  0.57573191  0.04777450  0.93888119     0.71300
O2414       O  0.95927218  0.06154898  0.55370494    -0.60400
O2415       O  0.92990047  0.02874894  0.53328513    -0.52400
C2416       C  0.93553718  0.05250494  0.54990741     0.73100
O2417       O  0.54768584  0.06342736  0.55430152    -0.71800
O2418       O  0.58069026  0.03600295  0.52766918    -0.50500
C2419       C  0.57224300  0.05774469  0.54683997     0.74500
O2420       O  0.96130327  0.05291722  0.93561422    -0.67100
O2421       O  0.93081840  0.02679978  0.96760679    -0.54300
C2422       C  0.93741314  0.04677745  0.94516905     0.72900
Zr2423     Zr  0.00629591  0.03517186  0.94782944     2.77500
O2424       O  0.00545066  0.09228458  0.93293958    -0.97900
O2425       O  0.00647625  0.01990562  0.89312320    -0.78700
Zr2426     Zr  0.00504089  0.04620845  0.54079004     2.70100
O2427       O  0.50082031  0.10149024  0.53995044    -0.79900
O2428       O  0.00474314  0.04747105  0.59793495    -0.99000
Zr2429     Zr  0.95715734  0.49266434  0.00030852     2.21500
Zr2430     Zr  0.55919816  0.99742046  0.49612512     2.11100
O2431       O  0.53171270  0.04177717  0.99412325    -2.47700
O2432       O  0.97953213  0.04126465  0.99446434    -0.79700
O2433       O  0.53373049  0.98918064  0.95188450    -0.71900
O2434       O  0.98067931  0.49665994  0.54758651    -2.32900
O2435       O  0.98342536  0.48916190  0.95282482    -2.29100
O2436       O  0.53302164  0.99672704  0.54385876    -0.73700
H2437       H  0.54689242  0.42643634  0.50517577     0.78300
H2438       H  0.96872125  0.49735142  0.56587931     0.79400
H2439       H  0.54240338  0.06068326  0.99209275     0.81600
H2440       H  0.97259831  0.48765707  0.93486829     0.79200
H2441       H  0.99653830  0.47368963  0.61214394     0.42300
H2442       H  0.51812560  0.02497153  0.60341014     0.41300
H2443       H  0.00005007  0.10959691  0.51400116     0.40900
H2444       H  0.49728524  0.09970133  0.92179707     0.38900
H2445       H  0.50733679  0.05033191  0.88273366     0.42000
H2446       H  0.02519907  0.45137219  0.89413071     0.36800
H2447       H  0.01078249  0.37996985  0.98959516     0.42900
H2448       H  0.50708045  0.38362473  0.57958893     0.39300
H2449       H  0.01049021  0.09305005  0.91020255     0.44200
H2450       H  0.52310938  0.44679929  0.89230397     0.43000
H2451       H  0.49948825  0.37940563  0.54473770     0.43100
H2452       H  0.02160395  0.03667034  0.60358482     0.43400
C2453       C  0.65398595  0.11731540  0.85823187     0.86400
C2454       C  0.65045633  0.11410008  0.82283212    -0.53900
C2455       C  0.66732652  0.13171976  0.80397733     0.09300
C2456       C  0.68853056  0.14858971  0.82228185     0.20200
C2457       C  0.68303338  0.10559302  0.86204443    -0.54600
C2458       C  0.70109677  0.12206013  0.84330940     0.09400
C2459       C  0.65445237  0.15360138  0.86389390    -0.54100
C2460       C  0.67312074  0.16986747  0.84605408     0.10000
H2461       H  0.63564902  0.09940998  0.81320254     0.14500
H2462       H  0.70315937  0.16197427  0.80715727     0.00200
H2463       H  0.68917425  0.08675227  0.87854636     0.14800
H2464       H  0.64111906  0.16534477  0.88088340     0.14600
C2465       C  0.65705861  0.35901095  0.87775195     0.86400
C2466       C  0.65277705  0.32309164  0.87143559    -0.53900
C2467       C  0.67155596  0.30919679  0.85152572     0.09300
C2468       C  0.69239252  0.33327795  0.83880201     0.20200
C2469       C  0.68547895  0.36071368  0.88816097    -0.54600
C2470       C  0.70390586  0.34726470  0.86808979     0.09400
C2471       C  0.65749511  0.37414454  0.84432101    -0.54100
C2472       C  0.67588000  0.36103839  0.82397687     0.10000
H2473       H  0.63644984  0.30939167  0.88120801     0.14500
H2474       H  0.70821593  0.32336576  0.82295806     0.00200
H2475       H  0.69068282  0.37242570  0.90938817     0.14800
H2476       H  0.64269772  0.39167077  0.83649658     0.14600
C2477       C  0.65541726  0.37994566  0.63674755     0.86400
C2478       C  0.65178616  0.38340817  0.67261893    -0.53900
C2479       C  0.66662172  0.36231471  0.68981881     0.09300
C2480       C  0.68254506  0.33767982  0.66998347     0.20200
C2481       C  0.68563141  0.38058666  0.62982113    -0.54600
C2482       C  0.69992590  0.35805153  0.64671348     0.09400
C2483       C  0.64828606  0.34449626  0.63215295    -0.54100
C2484       C  0.66190014  0.32237407  0.64981126     0.10000
H2485       H  0.63821296  0.39995828  0.68426359     0.14500
H2486       H  0.69397123  0.31988819  0.68430700     0.00200
H2487       H  0.69475046  0.39851878  0.61414526     0.14800
H2488       H  0.63399617  0.33728397  0.61564791     0.14600
C2489       C  0.65015566  0.13051766  0.61345432     0.86400
C2490       C  0.64691626  0.16810019  0.61156042    -0.53900
C2491       C  0.66211701  0.18395797  0.63150882     0.09300
C2492       C  0.67914167  0.16127018  0.65149105     0.20200
C2493       C  0.68026180  0.12540478  0.60755982    -0.54600
C2494       C  0.69544754  0.14110012  0.62759687     0.09400
C2495       C  0.64499942  0.12170098  0.64862933    -0.54100
C2496       C  0.66036995  0.13739326  0.66835968     0.10000
H2497       H  0.63500626  0.18166831  0.59505048     0.14500
H2498       H  0.69092751  0.17433621  0.66809768     0.00200
H2499       H  0.68911912  0.11081259  0.58946752     0.14800
H2500       H  0.63025027  0.10465745  0.65707456     0.14600
C2501       C  0.85911425  0.11929571  0.87361637     0.86400
C2502       C  0.85991923  0.15631803  0.87555219    -0.53900
C2503       C  0.84269623  0.17362483  0.85681769     0.09300
C2504       C  0.82776552  0.15099883  0.83594590     0.20200
C2505       C  0.82987914  0.11073096  0.87842694    -0.54600
C2506       C  0.81357082  0.12744761  0.85891014     0.09400
C2507       C  0.86581957  0.11431091  0.83835950    -0.54100
C2508       C  0.84952119  0.13074883  0.81875680     0.10000
H2509       H  0.87387974  0.16782109  0.88973896     0.14500
H2510       H  0.81349064  0.16192872  0.82005300     0.00200
H2511       H  0.82288897  0.09234039  0.89522054     0.14800
H2512       H  0.88232217  0.09966666  0.82926300     0.14600
C2513       C  0.85472646  0.11800186  0.62945303     0.86400
C2514       C  0.85948669  0.10997776  0.66408910    -0.53900
C2515       C  0.84320119  0.12620356  0.68458325     0.09300
C2516       C  0.82262225  0.14872090  0.66864493     0.20200
C2517       C  0.82522873  0.11016404  0.62664847    -0.54600
C2518       C  0.80819733  0.12661173  0.64669805     0.09400
C2519       C  0.85498481  0.15473240  0.62534166    -0.54100
C2520       C  0.83885046  0.17104704  0.64607318     0.10000
H2521       H  0.87518661  0.09367096  0.67182692     0.14500
H2522       H  0.80975540  0.16184638  0.68586601     0.00200
H2523       H  0.81756951  0.09379508  0.61032210     0.14800
H2524       H  0.86794966  0.16696728  0.60807080     0.14600
C2525       C  0.86043059  0.36516145  0.63356439     0.86400
C2526       C  0.86405655  0.32872505  0.62824537    -0.53900
C2527       C  0.84922784  0.30973549  0.64852543     0.09300
C2528       C  0.83169142  0.32881078  0.67219346     0.20200
C2529       C  0.83049273  0.37190923  0.63214761    -0.54600
C2530       C  0.81525215  0.35282731  0.65200381     0.09400
C2531       C  0.86633833  0.36797038  0.66883915    -0.54100
C2532       C  0.85133109  0.34920710  0.68904370     0.10000
H2533       H  0.87720343  0.31860200  0.61018510     0.14500
H2534       H  0.81950371  0.31296756  0.68804515     0.00200
H2535       H  0.82203616  0.38971811  0.61604334     0.14800
H2536       H  0.88134226  0.38306192  0.67757216     0.14600
C2537       C  0.86344829  0.36752705  0.87727229     0.86400
C2538       C  0.86503231  0.37571231  0.84174288    -0.53900
C2539       C  0.84787244  0.35942961  0.82480859     0.09300
C2540       C  0.82987308  0.33717149  0.84498403     0.20200
C2541       C  0.83383415  0.37393879  0.88734583    -0.54600
C2542       C  0.81646451  0.35857870  0.86987443     0.09400
C2543       C  0.86599942  0.33043517  0.88023034    -0.54100
C2544       C  0.84822011  0.31422458  0.86377718     0.10000
H2545       H  0.87982613  0.39135058  0.83072757     0.14500
H2546       H  0.81535986  0.32504322  0.83096503     0.00200
H2547       H  0.82667836  0.38609624  0.90813568     0.14800
H2548       H  0.88117017  0.31851165  0.89365706     0.14600
C2549       C  0.84428570  0.38085083  0.73719078    -0.05900
C2550       C  0.85237453  0.35149755  0.72392360     0.00000
C2551       C  0.86110582  0.32587219  0.74400032    -0.08600
C2552       C  0.86000599  0.33011524  0.77666513    -0.05900
C2553       C  0.84973296  0.35842476  0.78992328     0.00000
C2554       C  0.84171482  0.38436164  0.76996439    -0.08500
C2555       C  0.82897211  0.41470937  0.78312019     0.61900
H2556       H  0.83908251  0.40078627  0.72155719     0.12600
H2557       H  0.86758348  0.31140856  0.79227892     0.12600
C2558       C  0.87331380  0.29512747  0.73121020     0.62100
F2559       F  0.82238298  0.43686223  0.75961854    -0.23000
F2560       F  0.84596354  0.42919356  0.80249269    -0.20400
F2561       F  0.80605537  0.40672515  0.80002129    -0.20000
F2562       F  0.89494844  0.30273721  0.71188185    -0.20100
F2563       F  0.85513267  0.27928225  0.71467733    -0.20400
F2564       F  0.88183126  0.27422704  0.75482664    -0.23100
C2565       C  0.86565509  0.21929232  0.64995819    -0.05900
C2566       C  0.84036729  0.20671215  0.64799639     0.00000
C2567       C  0.81846203  0.22825410  0.64476439    -0.08600
C2568       C  0.82273864  0.26157595  0.64490046    -0.05900
C2569       C  0.84804184  0.27411969  0.64700499     0.00000
C2570       C  0.87016749  0.25246426  0.64918848    -0.08500
C2571       C  0.89890266  0.26160800  0.65123149     0.61900
H2572       H  0.88242510  0.20276869  0.65197048     0.12600
H2573       H  0.80614124  0.27839618  0.64297108     0.12600
C2574       C  0.79094478  0.21670214  0.63946866     0.62100
F2575       F  0.90922031  0.24672144  0.67766595    -0.23000
F2576       F  0.90274401  0.29411548  0.65300964    -0.20400
F2577       F  0.91308513  0.25072263  0.62498023    -0.20000
F2578       F  0.78053375  0.20174500  0.66644960    -0.20100
F2579       F  0.79191747  0.19557296  0.61504864    -0.20400
F2580       F  0.77396578  0.24198813  0.63159422    -0.23100
C2581       C  0.84047459  0.10107859  0.77146504    -0.05900
C2582       C  0.85191879  0.12775023  0.78421449     0.00000
C2583       C  0.86520445  0.15018513  0.76376459    -0.08600
C2584       C  0.86093094  0.14933723  0.73144922    -0.05900
C2585       C  0.84703532  0.12437991  0.71885098     0.00000
C2586       C  0.83913690  0.09797597  0.73883818    -0.08500
C2587       C  0.83002710  0.06584961  0.72765808     0.61900
H2588       H  0.83270893  0.08226677  0.78722727     0.12600
H2589       H  0.86938068  0.16772944  0.71569197     0.12600
C2590       C  0.88530321  0.17373926  0.77416893     0.62100
F2591       F  0.84837873  0.04211368  0.73566013    -0.23000
F2592       F  0.82717518  0.06521335  0.69561574    -0.20400
F2593       F  0.80600331  0.05845339  0.74247451    -0.20000
F2594       F  0.90966441  0.16601717  0.76004728    -0.20100
F2595       F  0.88803321  0.17298658  0.80628663    -0.20400
F2596       F  0.87835565  0.20480059  0.76465002    -0.23100
C2597       C  0.84554265  0.22391957  0.88717048    -0.05900
C2598       C  0.83992950  0.21016043  0.85835106     0.00000
C2599       C  0.83321971  0.23194101  0.83309903    -0.08600
C2600       C  0.83847461  0.26480419  0.83575310    -0.05900
C2601       C  0.84580328  0.27817354  0.86378644     0.00000
C2602       C  0.84754393  0.25736660  0.89081415    -0.08500
C2603       C  0.85075493  0.26935622  0.92377947     0.61900
H2604       H  0.84800694  0.20816608  0.90757509     0.12600
H2605       H  0.83580854  0.28071213  0.81567780     0.12600
C2606       C  0.81807665  0.22286917  0.80477776     0.62100
F2607       F  0.84226302  0.24689441  0.94648724    -0.23000
F2608       F  0.83587900  0.29729255  0.92862892    -0.20400
F2609       F  0.87708449  0.27472641  0.92827701    -0.20000
F2610       F  0.79356465  0.21180060  0.81497769    -0.20100
F2611       F  0.83171746  0.20000431  0.78763969    -0.20400
F2612       F  0.81363129  0.24882292  0.78431033    -0.23100
C2613       C  0.73312588  0.13199728  0.66086716    -0.05900
C2614       C  0.72450268  0.13601680  0.63015145     0.00000
C2615       C  0.74356116  0.13508375  0.60461971    -0.08600
C2616       C  0.77034256  0.13027163  0.61148134    -0.05900
C2617       C  0.77897357  0.12723930  0.64251597     0.00000
C2618       C  0.75962101  0.12680591  0.66759677    -0.08500
C2619       C  0.76465635  0.11923009  0.70175463     0.61900
H2620       H  0.71873245  0.13188356  0.68045380     0.12600
H2621       H  0.78495602  0.13041746  0.59211179     0.12600
C2622       C  0.73748980  0.13946093  0.57002877     0.62100
F2623       F  0.74895725  0.09403623  0.71240294    -0.23000
F2624       F  0.75825890  0.14595873  0.71933852    -0.20400
F2625       F  0.79024778  0.11008247  0.70654613    -0.20000
F2626       F  0.71340207  0.15443206  0.56511088    -0.20100
F2627       F  0.73800917  0.10963388  0.55651022    -0.20400
F2628       F  0.75641691  0.15827875  0.55453359    -0.23100
C2629       C  0.68381609  0.27101370  0.63686735    -0.05900
C2630       C  0.66013785  0.28693010  0.64582090     0.00000
C2631       C  0.63646799  0.26893606  0.64855292    -0.08600
C2632       C  0.63807434  0.23553886  0.64334836    -0.05900
C2633       C  0.66191218  0.21980008  0.63433178     0.00000
C2634       C  0.68493352  0.23834244  0.62942594    -0.08500
C2635       C  0.71007194  0.22494908  0.61374969     0.61900
H2636       H  0.70164289  0.28479517  0.63473117     0.12600
H2637       H  0.62040549  0.22142932  0.64663641     0.12600
C2638       C  0.60911906  0.28238239  0.65772875     0.62100
F2639       F  0.70390425  0.20916140  0.58719032    -0.23000
F2640       F  0.72294307  0.20425428  0.63417292    -0.20400
F2641       F  0.72728589  0.24904354  0.60428722    -0.20000
F2642       F  0.59221459  0.27697262  0.63395398    -0.20100
F2643       F  0.60833803  0.31484440  0.66317015    -0.20400
F2644       F  0.59978131  0.26653334  0.68487837    -0.23100
C2645       C  0.74135708  0.35940101  0.67529979    -0.05900
C2646       C  0.72959977  0.35595779  0.64650129     0.00000
C2647       C  0.74620587  0.34984719  0.61944419    -0.08600
C2648       C  0.77395923  0.34813480  0.62251066    -0.05900
C2649       C  0.78562552  0.35327816  0.65127056     0.00000
C2650       C  0.76891527  0.35983771  0.67797681    -0.08500
C2651       C  0.77977292  0.37040912  0.70843193     0.61900
H2652       H  0.72865575  0.36266741  0.69588183     0.12600
H2653       H  0.78691924  0.34323673  0.60221641     0.12600
C2654       C  0.73494978  0.34444789  0.58764702     0.62100
F2655       F  0.75995083  0.37914854  0.72999633    -0.23000
F2656       F  0.79522225  0.39691573  0.70216866    -0.20400
F2657       F  0.79436807  0.34586665  0.72226553    -0.20000
F2658       F  0.72376648  0.37276303  0.57600869    -0.20100
F2659       F  0.71593868  0.32121304  0.59037611    -0.20400
F2660       F  0.75428778  0.33427012  0.56591171    -0.23100
C2661       C  0.65041000  0.35248087  0.77739034    -0.05900
C2662       C  0.67285942  0.36524639  0.78977820     0.00000
C2663       C  0.69135041  0.38136473  0.76972386    -0.08600
C2664       C  0.68791630  0.38145529  0.73707533    -0.05900
C2665       C  0.66759741  0.36415994  0.72445514     0.00000
C2666       C  0.64803226  0.35029498  0.74489187    -0.08500
C2667       C  0.62546280  0.33209022  0.73245435     0.61900
H2668       H  0.63548728  0.34242431  0.79356128     0.12600
H2669       H  0.70112731  0.39485134  0.72127191     0.12600
C2670       C  0.71401699  0.39876541  0.78308336     0.62100
F2671       F  0.60843713  0.32061486  0.75629981    -0.23000
F2672       F  0.63572442  0.30606790  0.71614233    -0.20400
F2673       F  0.61097031  0.35207301  0.71281123    -0.20000
F2674       F  0.73160610  0.37654005  0.79588116    -0.20100
F2675       F  0.70448511  0.41910168  0.80629315    -0.20400
F2676       F  0.72737576  0.41726162  0.76030653    -0.23100
C2677       C  0.74311276  0.38059197  0.87329680    -0.05900
C2678       C  0.73263801  0.34968439  0.87263045     0.00000
C2679       C  0.74944486  0.32234420  0.87710493    -0.08600
C2680       C  0.77663458  0.32684426  0.87861326    -0.05900
C2681       C  0.78746133  0.35755679  0.87649198     0.00000
C2682       C  0.77036468  0.38515752  0.87594510    -0.08500
C2683       C  0.78030181  0.41905458  0.87891604     0.61900
H2684       H  0.72965747  0.40119868  0.87149960     0.12600
H2685       H  0.78992865  0.30606913  0.88029130     0.12600
C2686       C  0.73899846  0.28856672  0.88063278     0.62100
F2687       F  0.76062865  0.44214612  0.87376266    -0.23000
F2688       F  0.80096933  0.42504517  0.85752017    -0.20400
F2689       F  0.78875969  0.42261999  0.90896163    -0.20000
F2690       F  0.73059194  0.27890454  0.85215080    -0.20100
F2691       F  0.71831729  0.28799751  0.90289242    -0.20400
F2692       F  0.75815402  0.26653513  0.89040986    -0.23100
C2693       C  0.67341981  0.10701607  0.75183314    -0.05900
C2694       C  0.66453275  0.13370118  0.76922165     0.00000
C2695       C  0.65011577  0.15885398  0.75356950    -0.08600
C2696       C  0.64937475  0.15897768  0.72063790    -0.05900
C2697       C  0.65936158  0.13312103  0.70319659     0.00000
C2698       C  0.67003943  0.10566017  0.71917078    -0.08500
C2699       C  0.67658487  0.07464168  0.70230449     0.61900
H2700       H  0.68219326  0.08664985  0.76434989     0.12600
H2701       H  0.63997560  0.17915838  0.70834238     0.12600
C2702       C  0.63303762  0.18448782  0.76967357     0.62100
F2703       F  0.68741747  0.05127473  0.72209571    -0.23000
F2704       F  0.69440174  0.08001038  0.67736017    -0.20400
F2705       F  0.65367800  0.06272170  0.69123549    -0.20000
F2706       F  0.63974913  0.21454913  0.75768736    -0.20100
F2707       F  0.63503576  0.18426531  0.80169887    -0.20400
F2708       F  0.60690178  0.17958841  0.76355850    -0.23100
C2709       C  0.73919541  0.13045448  0.87651881    -0.05900
C2710       C  0.73002309  0.11970113  0.84812902     0.00000
C2711       C  0.74846224  0.10883210  0.82466493    -0.08600
C2712       C  0.77560969  0.11024881  0.82994760    -0.05900
C2713       C  0.78476482  0.12234388  0.85769992     0.00000
C2714       C  0.76637258  0.13270312  0.88151113    -0.08500
C2715       C  0.77532488  0.14759614  0.91122414     0.61900
H2716       H  0.72484705  0.13810994  0.89442242     0.12600
H2717       H  0.79003339  0.10280604  0.81193070     0.12600
C2718       C  0.73953614  0.09557906  0.79431747     0.62100
F2719       F  0.75415685  0.15838335  0.93010518    -0.23000
F2720       F  0.79101911  0.17363444  0.90343589    -0.20400
F2721       F  0.78956359  0.12507163  0.92851879    -0.20000
F2722       F  0.72753129  0.11979598  0.77675091    -0.20100
F2723       F  0.72188637  0.07123096  0.80097819    -0.20400
F2724       F  0.76053280  0.08303135  0.77633193    -0.23100
C2725       C  0.67926159  0.22335488  0.82014591    -0.05900
C2726       C  0.67715296  0.20511346  0.84833645     0.00000
C2727       C  0.67602888  0.22129583  0.87718814    -0.08600
C2728       C  0.67331793  0.25493997  0.87649721    -0.05900
C2729       C  0.67373729  0.27339970  0.84828124     0.00000
C2730       C  0.67696603  0.25720295  0.81930307    -0.08500
C2731       C  0.67370319  0.27402822  0.78755989     0.61900
H2732       H  0.68055471  0.21066228  0.79835925     0.12600
H2733       H  0.67147727  0.26711795  0.89865152     0.12600
C2734       C  0.67851752  0.20485027  0.90929936     0.62100
F2735       F  0.67797655  0.25342961  0.76287116    -0.23000
F2736       F  0.69126899  0.29841096  0.78228552    -0.20400
F2737       F  0.64810646  0.28587811  0.78663197    -0.20000
F2738       F  0.68722299  0.17321655  0.90771122    -0.20100
F2739       F  0.65429324  0.20608568  0.92555472    -0.20400
F2740       F  0.69665366  0.22077906  0.92608785    -0.23100
C2741       C  0.58903395  0.07922077  0.89091446    -0.05900
C2742       C  0.59640897  0.06571097  0.91990920     0.00000
C2743       C  0.62194141  0.07219932  0.93038847    -0.08600
C2744       C  0.63981143  0.08873241  0.90965456    -0.05900
C2745       C  0.63274925  0.10087188  0.87975615     0.00000
C2746       C  0.60556365  0.09933035  0.87238665    -0.08500
C2747       C  0.59178229  0.11932248  0.84705241     0.61900
H2748       H  0.56922980  0.07569237  0.88325091     0.12600
H2749       H  0.65929766  0.09331873  0.91742725     0.12600
C2750       C  0.63004763  0.06375826  0.96369614     0.62100
F2751       F  0.58755472  0.10032392  0.82177921    -0.23000
F2752       F  0.60547887  0.14611822  0.83698066    -0.20400
F2753       F  0.56747061  0.13061329  0.85886775    -0.20000
F2754       F  0.63230246  0.03079869  0.96830957    -0.20100
F2755       F  0.61140774  0.07618232  0.98505095    -0.20400
F2756       F  0.65417184  0.07646249  0.96993123    -0.23100
C2757       C  0.60322504  0.44257774  0.60742063    -0.05900
C2758       C  0.59883166  0.43028427  0.57794748     0.00000
C2759       C  0.61668830  0.40687062  0.56533452    -0.08600
C2760       C  0.63676844  0.39406455  0.58419093    -0.05900
C2761       C  0.63935711  0.40339500  0.61544783     0.00000
C2762       C  0.62446250  0.43129942  0.62541188    -0.08500
C2763       C  0.63194933  0.45281337  0.65162858     0.61900
H2764       H  0.59079297  0.46251259  0.61566135     0.12600
H2765       H  0.64972836  0.37500950  0.57524710     0.12600
C2766       C  0.61382894  0.39452289  0.53255048     0.62100
F2767       F  0.63019619  0.48475107  0.64162913    -0.23000
F2768       F  0.65769842  0.44713672  0.66020363    -0.20400
F2769       F  0.61458083  0.44876302  0.67737073    -0.20000
F2770       F  0.62052998  0.42456474  0.00721886    -0.20100
F2771       F  0.58895884  0.38211461  0.53024485    -0.20400
F2772       F  0.63236877  0.37049080  0.52542326    -0.23100
C2773       C  0.86817895  0.08307941  0.58297439    -0.05900
C2774       C  0.87584381  0.10238640  0.60754184     0.00000
C2775       C  0.90352039  0.10758062  0.61015901    -0.08600
C2776       C  0.92151210  0.09106206  0.59034235    -0.05900
C2777       C  0.91385892  0.07023839  0.56737706     0.00000
C2778       C  0.88648833  0.06721353  0.56259962    -0.08500
C2779       C  0.87612795  0.04802541  0.53606232     0.61900
H2780       H  0.84766889  0.08030204  0.57901448     0.12600
H2781       H  0.94235341  0.09456481  0.59339055     0.12600
C2782       C  0.91679909  0.13004514  0.63217024     0.62100
F2783       F  0.85000123  0.05752848  0.03153871    -0.23000
F2784       F  0.87962571  0.01806738  0.04130111    -0.20400
F2785       F  0.89025716  0.06001976  0.00843066    -0.20000
F2786       F  0.93506501  0.11240940  0.64928810    -0.20100
F2787       F  0.90044435  0.14595777  0.65338857    -0.20400
F2788       F  0.93009720  0.15319076  0.61405510    -0.23100
C2789       C  0.60836362  0.12635525  0.58270955    -0.05900
C2790       C  0.63201042  0.11105728  0.59264842     0.00000
C2791       C  0.63538047  0.07715647  0.58665359    -0.08600
C2792       C  0.61541766  0.06135358  0.57140211    -0.05900
C2793       C  0.59233486  0.07714672  0.56175769     0.00000
C2794       C  0.58917649  0.11056026  0.56644688    -0.08500
C2795       C  0.56561374  0.12995477  0.55456032     0.61900
H2796       H  0.60365431  0.15073791  0.58901484     0.12600
H2797       H  0.61763280  0.03592769  0.56679389     0.12600
C2798       C  0.65973966  0.05657675  0.59451899     0.62100
F2799       F  0.56996273  0.16272392  0.55416002    -0.23000
F2800       F  0.54361479  0.12395912  0.57399889    -0.20400
F2801       F  0.56076859  0.12182583  0.52413383    -0.20000
F2802       F  0.66757047  0.06200558  0.62442977    -0.20100
F2803       F  0.68001448  0.06265775  0.57256300    -0.20400
F2804       F  0.65507410  0.02400954  0.59329300    -0.23100
C2805       C  0.92998774  0.39456746  0.90969895    -0.05900
C2806       C  0.92142446  0.41643122  0.93279021     0.00000
C2807       C  0.89375584  0.42282906  0.93703150    -0.08600
C2808       C  0.87644310  0.40816383  0.91724102    -0.05900
C2809       C  0.88465485  0.38484206  0.89518554     0.00000
C2810       C  0.91257314  0.37878324  0.89074378    -0.08500
C2811       C  0.92643142  0.35681294  0.86667823     0.61900
H2812       H  0.95100515  0.38976988  0.90589174     0.12600
H2813       H  0.85618717  0.41615669  0.91887322     0.12600
C2814       C  0.88173276  0.44437713  0.96258215     0.62100
F2815       F  0.94410423  0.37471530  0.84810978    -0.23000
F2816       F  0.91024128  0.34219097  0.84671081    -0.20400
F2817       F  0.94043583  0.33281672  0.88247866    -0.20000
F2818       F  0.85439387  0.44359830  0.96455292    -0.20100
F2819       F  0.88852410  0.47603448  0.95644555    -0.20400
F2820       F  0.89050098  0.43398900  0.99155612    -0.23100
C2821       C  0.88645259  0.06890354  0.88552791    -0.05900
C2822       C  0.87682626  0.09922253  0.89579729     0.00000
C2823       C  0.88371139  0.10856152  0.92635823    -0.08600
C2824       C  0.90453146  0.09170385  0.94103057    -0.05900
C2825       C  0.91591499  0.06354262  0.92860409     0.00000
C2826       C  0.90588342  0.05095169  0.90139486    -0.08500
C2827       C  0.91570881  0.01855299  0.88939320     0.61900
H2828       H  0.87867022  0.05911282  0.86475525     0.12600
H2829       H  0.91131841  0.09990877  0.96312129     0.12600
C2830       C  0.86890675  0.13390637  0.94581275     0.62100
F2831       F  0.90362649  0.01063624  0.86228489    -0.23000
F2832       F  0.92123673  0.49765479  0.89950082    -0.20400
F2833       F  0.94266338  0.01914126  0.88280862    -0.20000
F2834       F  0.84403661  0.14125409  0.93529800    -0.20100
F2835       F  0.88347149  0.16156666  0.94573896    -0.20400
F2836       F  0.86538496  0.12256982  0.97660179    -0.23100
C2837       C  0.63795514  0.41123794  0.89713137    -0.05900
C2838       C  0.63793618  0.37727130  0.90034513     0.00000
C2839       C  0.62106115  0.36331472  0.92451769    -0.08600
C2840       C  0.60114004  0.38294743  0.93867175    -0.05900
C2841       C  0.59984479  0.41631120  0.93286422     0.00000
C2842       C  0.61913824  0.43100962  0.91274131    -0.08500
C2843       C  0.61937887  0.46725768  0.90691844     0.61900
H2844       H  0.65270607  0.42236551  0.88148176     0.12600
H2845       H  0.58698547  0.37234619  0.95556454     0.12600
C2846       C  0.62487483  0.32967885  0.93892752     0.62100
F2847       F  0.63845064  0.47624663  0.88427200    -0.23000
F2848       F  0.62477007  0.48202987  0.93438608    -0.20400
F2849       F  0.59507215  0.47824641  0.89686280    -0.20000
F2850       F  0.61901724  0.32980004  0.97098788    -0.20100
F2851       F  0.65075261  0.31858040  0.93519241    -0.20400
F2852       F  0.60797605  0.30876594  0.92587759    -0.23100
C2853       C  0.90569052  0.39638023  0.56381336    -0.05900
C2854       C  0.91748502  0.42221021  0.57756021     0.00000
C2855       C  0.90690001  0.43339674  0.60654091    -0.08600
C2856       C  0.88688057  0.41578189  0.62264512    -0.05900
C2857       C  0.87712817  0.38719783  0.61089733     0.00000
C2858       C  0.88441005  0.38006015  0.57897025    -0.08500
C2859       C  0.86959303  0.35782219  0.55867092     0.61900
H2860       H  0.91250032  0.38972270  0.54033825     0.12600
H2861       H  0.87874340  0.42448745  0.64474491     0.12600
C2862       C  0.91660590  0.46399778  0.62019274     0.62100
F2863       F  0.86519483  0.37316149  0.52997567    -0.23000
F2864       F  0.84517424  0.34965961  0.57172979    -0.20400
F2865       F  0.88464039  0.33013618  0.55326194    -0.20000
F2866       F  0.91246089  0.48966845  0.59941469    -0.20100
F2867       F  0.94328750  0.46073718  0.62530567    -0.20400
F2868       F  0.90353610  0.47096080  0.64851402    -0.23100
O2869       O  0.96538680  0.92561143  0.44632816    -0.73800
O2870       O  0.93377589  0.95705319  0.47017018    -0.54300
C2871       C  0.94095269  0.93409712  0.45205103     0.78300
O2872       O  0.55418157  0.93723336  0.06767595    -0.60000
O2873       O  0.58408758  0.96322366  0.03482516    -0.53100
C2874       C  0.57797457  0.94449555  0.05837150     0.70300
O2875       O  0.96257149  0.93482875  0.07191215    -0.74600
O2876       O  0.93181095  0.95826248  0.04020808    -0.55100
C2877       C  0.93862459  0.93971260  0.06332051     0.76300
O2878       O  0.55728459  0.92900003  0.44072609    -0.59700
O2879       O  0.58612269  0.96096380  0.46427974    -0.52800
C2880       C  0.58061248  0.93778706  0.44661622     0.72900
Zr2881     Zr  0.51184334  0.94541934  0.45321499     2.54700
O2882       O  0.51482388  0.88687198  0.45275796    -0.80300
O2883       O  0.51407452  0.94926040  0.39600371    -0.93700
Zr2884     Zr  0.50858223  0.94821676  0.05156936     2.64700
O2885       O  0.01303442  0.89471195  0.06351368    -0.98700
O2886       O  0.50769460  0.95328798  0.10834395    -0.80700
O2887       O  0.98236633  0.94494164  0.01018557    -0.84100
O2888       O  0.53439482  0.94482885  0.00391087    -2.18800
O2889       O  0.55025224  0.55332820  0.43261916    -0.67500
O2890       O  0.58170344  0.52828019  0.46163990    -0.52000
C2891       C  0.57451753  0.54802057  0.43971042     0.71300
O2892       O  0.95868670  0.55986759  0.05424901    -0.60400
O2893       O  0.92958689  0.52723861  0.03318765    -0.52400
C2894       C  0.93505390  0.55047259  0.05064740     0.73100
O2895       O  0.54683463  0.56556542  0.05061405    -0.71800
O2896       O  0.57949629  0.53606827  0.02602702    -0.50500
C2897       C  0.57131888  0.55889986  0.04415175     0.74500
O2898       O  0.96214138  0.55566828  0.43493717    -0.67100
O2899       O  0.93172548  0.52773311  0.46531909    -0.54300
C2900       C  0.93826275  0.54845529  0.44345079     0.72900
Zr2901     Zr  0.00687536  0.53963296  0.44952078     2.77500
O2902       O  0.00469656  0.59792480  0.44117306    -0.97900
O2903       O  0.00916703  0.53105408  0.39321023    -0.78700
Zr2904     Zr  0.00437294  0.54537797  0.04057760     2.70100
O2905       O  0.50075438  0.60465415  0.03095542    -0.79900
O2906       O  0.00121677  0.55187452  0.09726558    -0.99000
Zr2907     Zr  0.95718190  0.99328208  0.50150732     2.21500
Zr2908     Zr  0.55726922  0.49639245  0.99625410     2.11100
O2909       O  0.52988385  0.54128878  0.49483310    -2.47700
O2910       O  0.98004060  0.54233937  0.49637288    -0.79700
O2911       O  0.53368046  0.48986162  0.45227490    -0.71900
O2912       O  0.98037143  0.99961468  0.04870585    -2.32900
O2913       O  0.98277622  0.99024085  0.45343606    -2.29100
O2914       O  0.53152467  0.49999474  0.04412943    -0.73700
H2915       H  0.54642621  0.92646673  0.00543677     0.78300
H2916       H  0.96869300  0.00156590  0.06714549     0.79400
H2917       H  0.54018157  0.56053016  0.49308637     0.81600
H2918       H  0.97168431  0.98863069  0.43572637     0.79200
H2919       H  0.00759522  0.94309785  0.12181739     0.42300
H2920       H  0.51945278  0.54156473  0.10131042     0.41300
H2921       H  0.00289196  0.60575128  0.00697863     0.40900
H2922       H  0.51299384  0.60253866  0.46182924     0.38900
H2923       H  0.50717137  0.55390067  0.38375186     0.42000
H2924       H  0.01012929  0.91413978  0.39922757     0.36800
H2925       H  0.02450029  0.88072338  0.48333421     0.42900
H2926       H  0.51105134  0.88478579  0.07872997     0.39300
H2927       H  0.02112498  0.60578563  0.44966446     0.44200
H2928       H  0.52794159  0.96512407  0.39072780     0.43000
H2929       H  0.49564351  0.88212732  0.04788981     0.43100
H2930       H  0.01622052  0.53879906  0.10530564     0.43400
C2931       C  0.65320832  0.61537799  0.35776054     0.86400
C2932       C  0.64961301  0.61280567  0.32233167    -0.53900
C2933       C  0.66644817  0.63070027  0.30371852     0.09300
C2934       C  0.68758286  0.64741796  0.32230990     0.20200
C2935       C  0.68229831  0.60367167  0.36131069    -0.54600
C2936       C  0.70029932  0.62048661  0.34275195     0.09400
C2937       C  0.65354690  0.65146655  0.36407806    -0.54100
C2938       C  0.67199394  0.66829115  0.34653984     0.10000
H2939       H  0.63512097  0.59789611  0.31245220     0.14500
H2940       H  0.70222325  0.66091891  0.30730499     0.00200
H2941       H  0.68846023  0.58457795  0.37753598     0.14800
H2942       H  0.63977422  0.66272914  0.38084870     0.14600
C2943       C  0.65635502  0.85926026  0.37566419     0.86400
C2944       C  0.65092583  0.82334949  0.37029766    -0.53900
C2945       C  0.66919671  0.80825469  0.35037565     0.09300
C2946       C  0.69062267  0.83129746  0.33705981     0.20200
C2947       C  0.68477313  0.86005959  0.38575993    -0.54600
C2948       C  0.70266831  0.84554180  0.36595379     0.09400
C2949       C  0.65683113  0.87354772  0.34192376    -0.54100
C2950       C  0.67460972  0.85924386  0.32173380     0.10000
H2951       H  0.63434249  0.81068287  0.38112111     0.14500
H2952       H  0.70624796  0.82055325  0.32149041     0.00200
H2953       H  0.69046251  0.87226690  0.40651539     0.14800
H2954       H  0.64219198  0.89108843  0.33372547     0.14600
C2955       C  0.65437026  0.87711538  0.13514736     0.86400
C2956       C  0.64915348  0.87934835  0.17094369    -0.53900
C2957       C  0.66337774  0.85776861  0.18829945     0.09300
C2958       C  0.68028122  0.83399073  0.16866365     0.20200
C2959       C  0.68475631  0.87809783  0.13006126    -0.54600
C2960       C  0.69852223  0.85517999  0.14712482     0.09400
C2961       C  0.64756645  0.84192721  0.12897246    -0.54100
C2962       C  0.66051704  0.81942411  0.14686503     0.10000
H2963       H  0.63531951  0.89579585  0.18233893     0.14500
H2964       H  0.69112082  0.81572310  0.18309369     0.00200
H2965       H  0.69429090  0.89646770  0.11534605     0.14800
H2966       H  0.63386695  0.83518777  0.11157501     0.14600
C2967       C  0.64986999  0.62789958  0.11346997     0.86400
C2968       C  0.64703132  0.66525069  0.11058707    -0.53900
C2969       C  0.66210835  0.68134160  0.13030715     0.09300
C2970       C  0.67891493  0.65900739  0.15097631     0.20200
C2971       C  0.68000084  0.62222030  0.10779630    -0.54600
C2972       C  0.69532305  0.63795514  0.12782429     0.09400
C2973       C  0.64446694  0.61977600  0.14869675    -0.54100
C2974       C  0.65993744  0.63560105  0.16814566     0.10000
H2975       H  0.63495747  0.67827247  0.09379265     0.14500
H2976       H  0.69050631  0.67259618  0.16736686     0.00200
H2977       H  0.68837289  0.60688321  0.09011337     0.14800
H2978       H  0.62966318  0.60289622  0.15738318     0.14600
C2979       C  0.85854810  0.62153883  0.37329130     0.86400
C2980       C  0.85688757  0.65827303  0.37800438    -0.53900
C2981       C  0.83906885  0.67538102  0.35985483     0.09300
C2982       C  0.82599234  0.65321494  0.33698765     0.20200
C2983       C  0.82987077  0.61016242  0.37654618    -0.54600
C2984       C  0.81291452  0.62689487  0.35777723     0.09400
C2985       C  0.86611032  0.62001862  0.33781418    -0.54100
C2986       C  0.84915722  0.63653667  0.31901616     0.10000
H2987       H  0.87022544  0.66991568  0.39284104     0.14500
H2988       H  0.81158675  0.66385476  0.32122675     0.00200
H2989       H  0.82363962  0.59041303  0.39220487     0.14800
H2990       H  0.88336298  0.60721607  0.32801243     0.14600
C2991       C  0.85507831  0.61777883  0.13079551     0.86400
C2992       C  0.85959951  0.61201428  0.16581081    -0.53900
C2993       C  0.84331603  0.62980603  0.18502906     0.09300
C2994       C  0.82313601  0.65151422  0.16775024     0.20200
C2995       C  0.82541948  0.61035830  0.12834907    -0.54600
C2996       C  0.80853614  0.62827816  0.14733242     0.09400
C2997       C  0.85586148  0.65434652  0.12449874    -0.54100
C2998       C  0.83977121  0.67206191  0.14414664     0.10000
H2999       H  0.87500307  0.59593035  0.17468032     0.14500
H3000       H  0.81031815  0.66606037  0.18392125     0.00200
H3001       H  0.81749173  0.59335244  0.11288084     0.14800
H3002       H  0.86920641  0.66544116  0.10689457     0.14600
C3003       C  0.85938820  0.86627532  0.13668896     0.86400
C3004       C  0.86426593  0.83009509  0.13105012    -0.53900
C3005       C  0.84981777  0.81022171  0.15078114     0.09300
C3006       C  0.83163015  0.82815895  0.17473013     0.20200
C3007       C  0.82917875  0.87163378  0.13525559    -0.54600
C3008       C  0.81433439  0.85160386  0.15483702     0.09400
C3009       C  0.86499922  0.86903500  0.17193117    -0.54100
C3010       C  0.85051799  0.84951540  0.19186424     0.10000
H3011       H  0.87776561  0.82077868  0.11287065     0.14500
H3012       H  0.82023239  0.81120114  0.19014933     0.00200
H3013       H  0.82030922  0.88930552  0.11934567     0.14800
H3014       H  0.87951026  0.88457423  0.18101510     0.14600
C3015       C  0.86176127  0.86773954  0.38026878     0.86400
C3016       C  0.86406119  0.87724964  0.34497732    -0.53900
C3017       C  0.84747236  0.86130840  0.32696716     0.09300
C3018       C  0.82922719  0.83833141  0.34567592     0.20200
C3019       C  0.83177844  0.87383359  0.38930422    -0.54600
C3020       C  0.81509808  0.85885880  0.37043396     0.09400
C3021       C  0.86443689  0.83065103  0.38198074    -0.54100
C3022       C  0.84700548  0.81499892  0.36457685     0.10000
H3023       H  0.87893961  0.89333893  0.33490140     0.14500
H3024       H  0.81514337  0.82668410  0.33070359     0.00200
H3025       H  0.82354781  0.88730113  0.40883732     0.14800
H3026       H  0.87922609  0.81827226  0.39566899     0.14600
C3027       C  0.84312095  0.88181546  0.23951120    -0.05900
C3028       C  0.85145794  0.85231624  0.22664651     0.00000
C3029       C  0.86142081  0.82757479  0.24685106    -0.08600
C3030       C  0.86037316  0.83220170  0.27938404    -0.05900
C3031       C  0.85007687  0.86063963  0.29225995     0.00000
C3032       C  0.84144255  0.88611677  0.27218319    -0.08500
C3033       C  0.82908565  0.91676276  0.28519190     0.61900
H3034       H  0.83721283  0.90129281  0.22366814     0.12600
H3035       H  0.86784040  0.81360834  0.29526278     0.12600
C3036       C  0.87522634  0.79772217  0.23430498     0.62100
F3037       F  0.82179218  0.93839797  0.26155344    -0.23000
F3038       F  0.84672203  0.93165025  0.30344363    -0.20400
F3039       F  0.80668654  0.90920643  0.30328683    -0.20000
F3040       F  0.89695041  0.80694701  0.21586857    -0.20100
F3041       F  0.85828465  0.78081330  0.21694694    -0.20400
F3042       F  0.88407929  0.77732455  0.25813358    -0.23100
C3043       C  0.86664465  0.71991675  0.15008758    -0.05900
C3044       C  0.84172833  0.70761798  0.14513672     0.00000
C3045       C  0.82017575  0.72919859  0.14011349    -0.08600
C3046       C  0.82419714  0.76244648  0.14176508    -0.05900
C3047       C  0.84900291  0.77478786  0.14744400     0.00000
C3048       C  0.87093755  0.75307109  0.15110355    -0.08500
C3049       C  0.89903956  0.76225414  0.15720541     0.61900
H3050       H  0.88312031  0.70324970  0.15359411     0.12600
H3051       H  0.80774746  0.77929234  0.13874073     0.12600
C3052       C  0.79321620  0.71759895  0.13226273     0.62100
F3053       F  0.90616105  0.74855990  0.18573838    -0.23000
F3054       F  0.90259658  0.79491139  0.15795768    -0.20400
F3055       F  0.91599102  0.75017394  0.13382010    -0.20000
F3056       F  0.78090695  0.70366572  0.15867158    -0.20100
F3057       F  0.79578776  0.69546155  0.10871143    -0.20400
F3058       F  0.77712127  0.74273404  0.12178147    -0.23100
C3059       C  0.84275731  0.60617006  0.27197275    -0.05900
C3060       C  0.85097858  0.63477711  0.28445587     0.00000
C3061       C  0.85973494  0.66019905  0.26386641    -0.08600
C3062       C  0.85640489  0.65749797  0.23154715    -0.05900
C3063       C  0.84624179  0.62975642  0.21928457     0.00000
C3064       C  0.84057136  0.60283468  0.23958334    -0.08500
C3065       C  0.83208884  0.57020421  0.22902991     0.61900
H3066       H  0.83744500  0.58627509  0.28792133     0.12600
H3067       H  0.86234337  0.67707301  0.21552231     0.12600
C3068       C  0.87441140  0.68926578  0.27391277     0.62100
F3069       F  0.85228210  0.54784669  0.23397491    -0.23000
F3070       F  0.82602202  0.56984242  0.19779454    -0.20400
F3071       F  0.80990194  0.56078367  0.24674082    -0.20000
F3072       F  0.90042248  0.68664321  0.26282981    -0.20100
F3073       F  0.87424853  0.69214542  0.30606659    -0.20400
F3074       F  0.86334470  0.71711164  0.26090957    -0.23100
C3075       C  0.84213324  0.72572545  0.39007538    -0.05900
C3076       C  0.83550023  0.71169088  0.36185655     0.00000
C3077       C  0.82742545  0.73323165  0.33711011    -0.08600
C3078       C  0.83491544  0.76551397  0.33783962    -0.05900
C3079       C  0.84338239  0.77921990  0.36524862     0.00000
C3080       C  0.84427907  0.75919642  0.39291529    -0.08500
C3081       C  0.84569407  0.77211328  0.42578696     0.61900
H3082       H  0.84488574  0.71033671  0.41068371     0.12600
H3083       H  0.83262944  0.78056800  0.31697331     0.12600
C3084       C  0.80714760  0.72543455  0.31335376     0.62100
F3085       F  0.83549507  0.75044204  0.44823619    -0.23000
F3086       F  0.83091529  0.80042616  0.42862887    -0.20400
F3087       F  0.87164216  0.77715048  0.43249889    -0.20000
F3088       F  0.78621353  0.70973088  0.32850107    -0.20100
F3089       F  0.81827895  0.70715888  0.28958954    -0.20400
F3090       F  0.79656937  0.75311849  0.29930813    -0.23100
C3091       C  0.73331195  0.63242473  0.16170328    -0.05900
C3092       C  0.72451190  0.63301020  0.13089176     0.00000
C3093       C  0.74366038  0.63108683  0.10552104    -0.08600
C3094       C  0.77058283  0.62925768  0.11250899    -0.05900
C3095       C  0.77927529  0.62862007  0.14351458     0.00000
C3096       C  0.75997782  0.62949581  0.16866788    -0.08500
C3097       C  0.76532656  0.62637133  0.20330749     0.61900
H3098       H  0.71896015  0.63333195  0.18128444     0.12600
H3099       H  0.78529459  0.62870338  0.09330396     0.12600
C3100       C  0.73678877  0.63037889  0.07116549     0.62100
F3101       F  0.74877876  0.60375843  0.21751848    -0.23000
F3102       F  0.76030825  0.65570373  0.21713896    -0.20400
F3103       F  0.79061681  0.61630190  0.20889344    -0.20000
F3104       F  0.71622671  0.65155808  0.06463267    -0.20100
F3105       F  0.73001911  0.59952305  0.06413330    -0.20400
F3106       F  0.75802362  0.63897038  0.05134124    -0.23100
C3107       C  0.68258221  0.76887702  0.13264566    -0.05900
C3108       C  0.65886467  0.78426007  0.14226907     0.00000
C3109       C  0.63541699  0.76594977  0.14575441    -0.08600
C3110       C  0.63747660  0.73245979  0.14151236    -0.05900
C3111       C  0.66148531  0.71709661  0.13252279     0.00000
C3112       C  0.68409940  0.73599862  0.12627319    -0.08500
C3113       C  0.70912309  0.72255462  0.11041098     0.61900
H3114       H  0.70004856  0.78325090  0.12920529     0.12600
H3115       H  0.62004453  0.71801348  0.14539418     0.12600
C3116       C  0.60786228  0.77925323  0.15423850     0.62100
F3117       F  0.70270456  0.70693795  0.08382260    -0.23000
F3118       F  0.72195756  0.70163282  0.13064171    -0.20400
F3119       F  0.72646772  0.74654753  0.10105709    -0.20000
F3120       F  0.59127210  0.77280347  0.13041061    -0.20100
F3121       F  0.60676022  0.81193068  0.15871234    -0.20400
F3122       F  0.59834330  0.76407497  0.18166327    -0.23100
C3123       C  0.73956059  0.85242008  0.17735919    -0.05900
C3124       C  0.72829306  0.85276540  0.14785530     0.00000
C3125       C  0.74552433  0.85040898  0.12069149    -0.08600
C3126       C  0.77322771  0.84898292  0.12430887    -0.05900
C3127       C  0.78450950  0.85071937  0.15385846     0.00000
C3128       C  0.76712211  0.85308716  0.18090852    -0.08500
C3129       C  0.77698742  0.86003679  0.21302317     0.61900
H3130       H  0.72644054  0.85281105  0.19796065     0.12600
H3131       H  0.78645132  0.84726701  0.10370347     0.12600
C3132       C  0.73513883  0.84932521  0.08786643     0.62100
F3133       F  0.75650602  0.86724277  0.23436092    -0.23000
F3134       F  0.79293536  0.88641934  0.21027126    -0.20400
F3135       F  0.79072003  0.83387768  0.22534646    -0.20000
F3136       F  0.72772068  0.88000973  0.07774330    -0.20100
F3137       F  0.71369675  0.82945952  0.08760093    -0.20400
F3138       F  0.75422611  0.83763536  0.06659013    -0.23100
C3139       C  0.64840057  0.84861090  0.27609658    -0.05900
C3140       C  0.67084479  0.86234815  0.28764331     0.00000
C3141       C  0.68860185  0.87877588  0.26692526    -0.08600
C3142       C  0.68496111  0.87764892  0.23446530    -0.05900
C3143       C  0.66453836  0.85995678  0.22273013     0.00000
C3144       C  0.64530911  0.84620872  0.24370517    -0.08500
C3145       C  0.62233132  0.82814308  0.23192961     0.61900
H3146       H  0.63399695  0.83830573  0.29280007     0.12600
H3147       H  0.69805901  0.89050073  0.21800730     0.12600
C3148       C  0.71047034  0.89819051  0.27943693     0.62100
F3149       F  0.60562186  0.81704117  0.25628444    -0.23000
F3150       F  0.63202099  0.80192515  0.21547610    -0.20400
F3151       F  0.60763774  0.84812725  0.21248416    -0.20000
F3152       F  0.72804554  0.87789322  0.29481039    -0.20100
F3153       F  0.69973850  0.92029318  0.30034162    -0.20400
F3154       F  0.72416976  0.91495998  0.25561945    -0.23100
C3155       C  0.74148819  0.87949390  0.36925405    -0.05900
C3156       C  0.73136088  0.84838443  0.37005090     0.00000
C3157       C  0.74827347  0.82159032  0.37620363    -0.08600
C3158       C  0.77538241  0.82680276  0.37828931    -0.05900
C3159       C  0.78595373  0.85774786  0.37479188     0.00000
C3160       C  0.76859239  0.88487397  0.37125069    -0.08500
C3161       C  0.77684265  0.91978481  0.36930772     0.61900
H3162       H  0.72800751  0.89993286  0.36600369     0.12600
H3163       H  0.78880519  0.80639134  0.38169038     0.12600
C3164       C  0.73782630  0.78786561  0.38129460     0.62100
F3165       F  0.76499095  0.93560704  0.34434932    -0.23000
F3166       F  0.80370332  0.92358569  0.36509079    -0.20400
F3167       F  0.76833726  0.93444021  0.39678231    -0.20000
F3168       F  0.72884967  0.77701718  0.35352040    -0.20100
F3169       F  0.71737532  0.78811235  0.40392040    -0.20400
F3170       F  0.75715483  0.76626123  0.39143774    -0.23100
C3171       C  0.67348872  0.60605086  0.25162705    -0.05900
C3172       C  0.66393925  0.63254081  0.26890926     0.00000
C3173       C  0.64907960  0.65718463  0.25310873    -0.08600
C3174       C  0.64830731  0.65702257  0.22020796    -0.05900
C3175       C  0.65903295  0.63148840  0.20291137     0.00000
C3176       C  0.67046580  0.60452890  0.21891382    -0.08500
C3177       C  0.67827168  0.57385145  0.20198158     0.61900
H3178       H  0.68254578  0.58595949  0.26424202     0.12600
H3179       H  0.63843671  0.67678203  0.20780439     0.12600
C3180       C  0.63174391  0.68268180  0.26901763     0.62100
F3181       F  0.68971767  0.55100907  0.22183604    -0.23000
F3182       F  0.69610717  0.58014569  0.17727429    -0.20400
F3183       F  0.65599515  0.56076028  0.19048418    -0.20000
F3184       F  0.63818542  0.71275724  0.25678653    -0.20100
F3185       F  0.63377064  0.68274565  0.30104410    -0.20400
F3186       F  0.60566787  0.67732509  0.26292624    -0.23100
C3187       C  0.73852269  0.62931252  0.37543989    -0.05900
C3188       C  0.72929946  0.61804578  0.34735256     0.00000
C3189       C  0.74773024  0.60657955  0.32410407    -0.08600
C3190       C  0.77496867  0.60828568  0.32912923    -0.05900
C3191       C  0.78416818  0.62084182  0.35667298     0.00000
C3192       C  0.76572154  0.63131185  0.38040971    -0.08500
C3193       C  0.77468145  0.64578811  0.41025616     0.61900
H3194       H  0.72413954  0.63763890  0.39308440     0.12600
H3195       H  0.78937424  0.60080503  0.31107572     0.12600
C3196       C  0.73865748  0.59289385  0.29407437     0.62100
F3197       F  0.75353397  0.65569128  0.42962192    -0.23000
F3198       F  0.78989355  0.67230097  0.40281688    -0.20400
F3199       F  0.78937819  0.62315210  0.42684943    -0.20000
F3200       F  0.72714969  0.61718990  0.27611811    -0.20100
F3201       F  0.72050330  0.56918380  0.30111774    -0.20400
F3202       F  0.75947917  0.57933091  0.27649865    -0.23100
C3203       C  0.67774097  0.72170101  0.32052089    -0.05900
C3204       C  0.67490584  0.70384962  0.34881757     0.00000
C3205       C  0.67192562  0.72059105  0.37738598    -0.08600
C3206       C  0.66907602  0.75427047  0.37600113    -0.05900
C3207       C  0.67061567  0.77229662  0.34754296     0.00000
C3208       C  0.67495552  0.75548773  0.31892910    -0.08500
C3209       C  0.67226751  0.77112650  0.28647268     0.61900
H3210       H  0.67992309  0.70862188  0.29901287     0.12600
H3211       H  0.66637397  0.76687385  0.39784768     0.12600
C3212       C  0.67258338  0.70455918  0.40990021     0.62100
F3213       F  0.67814332  0.74988384  0.26262037    -0.23000
F3214       F  0.68906215  0.79623324  0.28108238    -0.20400
F3215       F  0.64640944  0.78154346  0.28387607    -0.20000
F3216       F  0.68485461  0.67450677  0.40938225    -0.20100
F3217       F  0.64707634  0.70188714  0.42251510    -0.20400
F3218       F  0.68658606  0.72306401  0.42953327    -0.23100
C3219       C  0.58794641  0.57839144  0.39110279    -0.05900
C3220       C  0.59520774  0.56564734  0.42043440     0.00000
C3221       C  0.62082593  0.57217306  0.43068914    -0.08600
C3222       C  0.63894374  0.58747330  0.40933548    -0.05900
C3223       C  0.63197654  0.59881872  0.37915839     0.00000
C3224       C  0.60469744  0.59770983  0.37200291    -0.08500
C3225       C  0.59116244  0.61773285  0.34646096     0.61900
H3226       H  0.56810840  0.57486693  0.38357034     0.12600
H3227       H  0.65853756  0.59193655  0.41685846     0.12600
C3228       C  0.62874209  0.56537851  0.46437561     0.62100
F3229       F  0.58839888  0.59934811  0.32038884    -0.23000
F3230       F  0.60440937  0.64535875  0.33796509    -0.20400
F3231       F  0.56616023  0.62774034  0.35723923    -0.20000
F3232       F  0.63081233  0.53263007  0.47064982    -0.20100
F3233       F  0.61008470  0.57905165  0.48496048    -0.20400
F3234       F  0.65290449  0.57831907  0.47007772    -0.23100
C3235       C  0.60392542  0.94149791  0.10613555    -0.05900
C3236       C  0.60003679  0.93034980  0.07609833     0.00000
C3237       C  0.61815346  0.90752754  0.06290592    -0.08600
C3238       C  0.63739625  0.89328359  0.08211295    -0.05900
C3239       C  0.63927853  0.90139743  0.11384604     0.00000
C3240       C  0.62474571  0.92934499  0.12420704    -0.08500
C3241       C  0.63227273  0.94994802  0.15108499     0.61900
H3242       H  0.59151907  0.96128100  0.11477403     0.12600
H3243       H  0.65033248  0.87433391  0.07291254     0.12600
C3244       C  0.61664266  0.89761646  0.02903552     0.62100
F3245       F  0.63185937  0.98202879  0.14148094    -0.23000
F3246       F  0.65754788  0.94277055  0.16060650    -0.20400
F3247       F  0.61412273  0.94642440  0.17612363    -0.20000
F3248       F  0.62103647  0.92338266  0.50907189    -0.20100
F3249       F  0.59173437  0.88653335  0.02400571    -0.20400
F3250       F  0.63495028  0.87343379  0.02157218    -0.23100
C3251       C  0.86813565  0.57781498  0.08811441    -0.05900
C3252       C  0.87601659  0.60010121  0.11006338     0.00000
C3253       C  0.90369350  0.60611198  0.11117173    -0.08600
C3254       C  0.92137760  0.58930242  0.09116974    -0.05900
C3255       C  0.91347013  0.56725680  0.06937661     0.00000
C3256       C  0.88605328  0.56197923  0.06720404    -0.08500
C3257       C  0.87515706  0.54068942  0.04260751     0.61900
H3258       H  0.84771336  0.57255062  0.08659643     0.12600
H3259       H  0.94220835  0.59390715  0.09288623     0.12600
C3260       C  0.91729350  0.62971177  0.13174388     0.62100
F3261       F  0.84839603  0.54409770  0.53806238    -0.23000
F3262       F  0.88273613  0.51098707  0.54689651    -0.20400
F3263       F  0.88604938  0.55117942  0.50985925    -0.20000
F3264       F  0.93593974  0.61295772  0.14904787    -0.20100
F3265       F  0.90125125  0.64640541  0.15268861    -0.20400
F3266       F  0.93019753  0.65217450  0.11235667    -0.23100
C3267       C  0.60628745  0.62419056  0.08713463    -0.05900
C3268       C  0.63109027  0.60931002  0.09301648     0.00000
C3269       C  0.63499113  0.57654202  0.08368869    -0.08600
C3270       C  0.61572673  0.56252411  0.06588321    -0.05900
C3271       C  0.59147138  0.57789807  0.05972110     0.00000
C3272       C  0.58671526  0.60965297  0.07041213    -0.08500
C3273       C  0.56118106  0.62867879  0.06463150     0.61900
H3274       H  0.60130684  0.64710053  0.09730836     0.12600
H3275       H  0.61913285  0.53826622  0.05776404     0.12600
C3276       C  0.65817166  0.55454863  0.09265860     0.62100
F3277       F  0.56295592  0.66075654  0.07196509    -0.23000
F3278       F  0.54067243  0.61592596  0.08315428    -0.20400
F3279       F  0.55541635  0.62777385  0.03324523    -0.20000
F3280       F  0.66604243  0.56021031  0.12252983    -0.20100
F3281       F  0.67898910  0.55835088  0.07089298    -0.20400
F3282       F  0.65139768  0.52252017  0.09267546    -0.23100
C3283       C  0.92836572  0.89676847  0.41100709    -0.05900
C3284       C  0.92001030  0.91680620  0.43563623     0.00000
C3285       C  0.89236533  0.91998625  0.44292543    -0.08600
C3286       C  0.87468419  0.90381044  0.42461716    -0.05900
C3287       C  0.88286192  0.88398524  0.39940298     0.00000
C3288       C  0.91084075  0.88025515  0.39286691    -0.08500
C3289       C  0.92482128  0.86006239  0.36740184     0.61900
H3290       H  0.94935679  0.89406540  0.40526011     0.12600
H3291       H  0.85410740  0.90743037  0.43035751     0.12600
C3292       C  0.88090578  0.94021725  0.46980149     0.62100
F3293       F  0.93962076  0.88017536  0.34743396    -0.23000
F3294       F  0.90876051  0.84309001  0.34916236    -0.20400
F3295       F  0.94181984  0.83799158  0.38154147    -0.20000
F3296       F  0.85392986  0.93664966  0.47479697    -0.20100
F3297       F  0.88513614  0.97249974  0.46308243    -0.20400
F3298       F  0.89253553  0.93095564  0.49749306    -0.23100
C3299       C  0.88863471  0.57260185  0.38235134    -0.05900
C3300       C  0.87717113  0.60131269  0.39451952     0.00000
C3301       C  0.88297337  0.60874040  0.42604972    -0.08600
C3302       C  0.90384738  0.59175412  0.44057033    -0.05900
C3303       C  0.91677982  0.56529671  0.42667966     0.00000
C3304       C  0.90842990  0.55465699  0.39775182    -0.08500
C3305       C  0.92058228  0.52447022  0.38326596     0.61900
H3306       H  0.88205067  0.56407388  0.36040268     0.12600
H3307       H  0.90957476  0.59851127  0.46363783     0.12600
C3308       C  0.86685152  0.63200070  0.44658423     0.62100
F3309       F  0.90911366  0.51744533  0.35549436    -0.23000
F3310       F  0.91913004  0.99733220  0.40158354    -0.20400
F3311       F  0.94729789  0.52853227  0.37689930    -0.20000
F3312       F  0.84154172  0.63712707  0.43655088    -0.20100
F3313       F  0.87951603  0.66100438  0.44726404    -0.20400
F3314       F  0.86435506  0.61950069  0.47707326    -0.23100
C3315       C  0.63797051  0.91266230  0.39309398    -0.05900
C3316       C  0.63834011  0.87881547  0.39820404     0.00000
C3317       C  0.62368222  0.86615744  0.42493139    -0.08600
C3318       C  0.60467141  0.88634116  0.43987747    -0.05900
C3319       C  0.60245448  0.91920560  0.43193178     0.00000
C3320       C  0.61992143  0.93304984  0.40906564    -0.08500
C3321       C  0.61868680  0.96886010  0.40059452     0.61900
H3322       H  0.65168291  0.92321307  0.37575943     0.12600
H3323       H  0.59180845  0.87657151  0.45866844     0.12600
C3324       C  0.62842430  0.83318256  0.44037641     0.62100
F3325       F  0.63601364  0.97683362  0.37566975    -0.23000
F3326       F  0.62523516  0.98619952  0.42612428    -0.20400
F3327       F  0.59343750  0.97789178  0.39215533    -0.20000
F3328       F  0.62619051  0.83532470  0.47274666    -0.20100
F3329       F  0.65348279  0.82079311  0.43337893    -0.20400
F3330       F  0.60962845  0.81224221  0.43136834    -0.23100
C3331       C  0.90462275  0.89777885  0.06728493    -0.05900
C3332       C  0.91711481  0.92293309  0.08131584     0.00000
C3333       C  0.90712908  0.93369827  0.11069190    -0.08600
C3334       C  0.88656235  0.91671305  0.12649931    -0.05900
C3335       C  0.87585754  0.88887542  0.11424312     0.00000
C3336       C  0.88293934  0.88204378  0.08220859    -0.08500
C3337       C  0.86784903  0.86031001  0.06166501     0.61900
H3338       H  0.91142704  0.89090284  0.04390535     0.12600
H3339       H  0.87873217  0.92543139  0.14870986     0.12600
C3340       C  0.91811933  0.96321674  0.12506448     0.62100
F3341       F  0.86221925  0.87684386  0.03395763    -0.23000
F3342       F  0.84404155  0.85065908  0.07530665    -0.20400
F3343       F  0.88328731  0.83340147  0.05436751    -0.20000
F3344       F  0.91478112  0.98968908  0.10499151    -0.20100
F3345       F  0.94473856  0.95825538  0.12982419    -0.20400
F3346       F  0.90558752  0.96999264  0.15373506    -0.23100
O3347       O  0.96499701  0.92250839  0.94955847    -0.73800
O3348       O  0.93311094  0.95520637  0.97129247    -0.54300
C3349       C  0.94055630  0.93138363  0.95418847     0.78300
O3350       O  0.55501615  0.93909369  0.56516909    -0.60000
O3351       O  0.58485618  0.96702035  0.53389063    -0.53100
C3352       C  0.57868625  0.94774406  0.55706855     0.70300
O3353       O  0.96456508  0.93486306  0.57040165    -0.74600
O3354       O  0.93345538  0.95879440  0.53947591    -0.55100
C3355       C  0.94046872  0.94020440  0.56250869     0.76300
O3356       O  0.55382583  0.92404879  0.94337768    -0.59700
O3357       O  0.58329217  0.95563071  0.96622709    -0.52800
C3358       C  0.57738471  0.93261658  0.94857836     0.72900
Zr3359     Zr  0.50896541  0.94125770  0.95855074     2.54700
O3360       O  0.50809178  0.88328851  0.96851126    -0.80300
O3361       O  0.51197759  0.93530612  0.90180362    -0.93700
Zr3362     Zr  0.51021322  0.94742917  0.54614368     2.64700
O3363       O  0.01213627  0.89274699  0.55793170    -0.98700
O3364       O  0.50910240  0.94067733  0.60312080    -0.80700
O3365       O  0.98382079  0.94548182  0.50669177    -0.84100
O3366       O  0.53677549  0.94745250  0.49916422    -2.18800
O3367       O  0.55100836  0.55374456  0.92942099    -0.67500
O3368       O  0.58243561  0.52906145  0.95868259    -0.52000
C3369       C  0.57527682  0.54859432  0.93663245     0.71300
O3370       O  0.95869278  0.55956204  0.55641658    -0.60400
O3371       O  0.92976230  0.52855321  0.53291739    -0.52400
C3372       C  0.93506041  0.55110227  0.55125733     0.73100
O3373       O  0.54612310  0.56189942  0.55465427    -0.71800
O3374       O  0.57929110  0.53418429  0.52880714    -0.50500
C3375       C  0.57070873  0.55656993  0.54724012     0.74500
O3376       O  0.96278344  0.55354765  0.93320874    -0.67100
O3377       O  0.93212412  0.52737912  0.96481526    -0.54300
C3378       C  0.93882719  0.54709479  0.94212908     0.72900
Zr3379     Zr  0.00735311  0.53730533  0.94810410     2.77500
O3380       O  0.00624612  0.59550436  0.93908998    -0.97900
O3381       O  0.00900484  0.52783126  0.89194033    -0.78700
Zr3382     Zr  0.00433687  0.54511227  0.54243020     2.70100
O3383       O  0.49886670  0.59985938  0.53382096    -0.79900
O3384       O  0.00224126  0.54860421  0.59944369    -0.99000
Zr3385     Zr  0.95607993  0.99254051  0.00277465     2.21500
Zr3386     Zr  0.55736739  0.49416113  0.49903399     2.11100
O3387       O  0.53025447  0.54381031  0.99064227    -2.47700
O3388       O  0.98021755  0.54169180  0.99460903    -0.79700
O3389       O  0.53336378  0.49019316  0.94985773    -0.71900
O3390       O  0.98146189  0.99789873  0.54783783    -2.32900
O3391       O  0.98194306  0.98738227  0.95508419    -2.29100
O3392       O  0.53108951  0.49538939  0.54672584    -0.73700
H3393       H  0.54916248  0.92941969  0.50036648     0.78300
H3394       H  0.96971419  0.99903628  0.56628953     0.79400
H3395       H  0.54073284  0.56288131  0.98832537     0.81600
H3396       H  0.97095826  0.98517439  0.93736667     0.79200
H3397       H  0.00520306  0.93701153  0.61774524     0.42300
H3398       H  0.49118554  0.56642921  0.60256662     0.41300
H3399       H  0.98913479  0.60701062  0.51762540     0.40900
H3400       H  0.51597194  0.60425096  0.94897942     0.38900
H3401       H  0.52341069  0.53467907  0.88043735     0.42000
H3402       H  0.99463851  0.94180223  0.89888487     0.36800
H3403       H  0.00715307  0.87236372  0.95789203     0.42900
H3404       H  0.52359416  0.88118185  0.55795440     0.39300
H3405       H  0.01094530  0.59869036  0.91641366     0.44200
H3406       H  0.50534733  0.91351816  0.89855714     0.43000
H3407       H  0.49698359  0.88160269  0.54058273     0.43100
H3408       H  0.01035955  0.56937011  0.60357377     0.43400
C3409       C  0.65369886  0.61640431  0.85519066     0.86400
C3410       C  0.64948685  0.61552048  0.81970580    -0.53900
C3411       C  0.66688587  0.63302366  0.80144076     0.09300
C3412       C  0.68885271  0.64769267  0.82027372     0.20200
C3413       C  0.68239667  0.60299908  0.85790885    -0.54600
C3414       C  0.70081802  0.61953942  0.83978301     0.09400
C3415       C  0.65541493  0.65207524  0.86269813    -0.54100
C3416       C  0.67424783  0.66837944  0.84528192     0.10000
H3417       H  0.63429329  0.60193840  0.80952040     0.14500
H3418       H  0.70382847  0.66094380  0.80553377     0.00200
H3419       H  0.68802713  0.58327553  0.87372569     0.14800
H3420       H  0.64243726  0.66350154  0.88025454     0.14600
C3421       C  0.65660108  0.85703966  0.87881601     0.86400
C3422       C  0.65280977  0.82090936  0.87296742    -0.53900
C3423       C  0.67149910  0.80737150  0.85260306     0.09300
C3424       C  0.69167633  0.83196845  0.83923544     0.20200
C3425       C  0.68513732  0.85959636  0.88850168    -0.54600
C3426       C  0.70338044  0.84641823  0.86812572     0.09400
C3427       C  0.65614174  0.87187522  0.84529694    -0.54100
C3428       C  0.67442105  0.85919244  0.82459997     0.10000
H3429       H  0.63686056  0.80692636  0.88344941     0.14500
H3430       H  0.70765123  0.82245591  0.82347041     0.00200
H3431       H  0.69053510  0.87155854  0.90951202     0.14800
H3432       H  0.64104242  0.88917679  0.83782049     0.14600
C3433       C  0.65455717  0.88248690  0.63664870     0.86400
C3434       C  0.64989210  0.88573300  0.67256393    -0.53900
C3435       C  0.66444783  0.86452367  0.69020285     0.09300
C3436       C  0.68121829  0.84041236  0.67056971     0.20200
C3437       C  0.68478389  0.88370018  0.63088583    -0.54600
C3438       C  0.69893532  0.86141672  0.64813520     0.09400
C3439       C  0.64786822  0.84709254  0.63159124    -0.54100
C3440       C  0.66122411  0.82507602  0.64949934     0.10000
H3441       H  0.63614065  0.90254506  0.68365952     0.14500
H3442       H  0.69246433  0.82258296  0.68504741     0.00200
H3443       H  0.69396612  0.90192985  0.61566164     0.14800
H3444       H  0.63387623  0.83977568  0.61477143     0.14600
C3445       C  0.64762995  0.63386149  0.61138683     0.86400
C3446       C  0.64399573  0.67139410  0.60923004    -0.53900
C3447       C  0.65979771  0.68757225  0.62835778     0.09300
C3448       C  0.67735333  0.66529921  0.64792796     0.20200
C3449       C  0.67768705  0.62910492  0.60430374    -0.54600
C3450       C  0.69334256  0.64500667  0.62377629     0.09400
C3451       C  0.64340774  0.62540939  0.64678768    -0.54100
C3452       C  0.65915165  0.64147130  0.66572379     0.10000
H3453       H  0.63131835  0.68456892  0.59326244     0.14500
H3454       H  0.68915773  0.67892054  0.66402341     0.00200
H3455       H  0.68583267  0.61382003  0.58625089     0.14800
H3456       H  0.62922219  0.60798911  0.65598751     0.14600
C3457       C  0.85924226  0.61802139  0.86946436     0.86400
C3458       C  0.85819219  0.65487814  0.87382786    -0.53900
C3459       C  0.84015360  0.67212272  0.85604130     0.09300
C3460       C  0.82630024  0.64983555  0.83380179     0.20200
C3461       C  0.83040954  0.60725314  0.87378538    -0.54600
C3462       C  0.81328334  0.62405641  0.85531193     0.09400
C3463       C  0.86595469  0.61586051  0.83373656    -0.54100
C3464       C  0.84870132  0.63225363  0.81531128     0.10000
H3465       H  0.87121409  0.66615200  0.88946151     0.14500
H3466       H  0.81175987  0.66054817  0.81825571     0.00200
H3467       H  0.82421557  0.58781408  0.88985027     0.14800
H3468       H  0.88295137  0.60313562  0.82330283     0.14600
C3469       C  0.85289489  0.62019042  0.62646808     0.86400
C3470       C  0.85690386  0.61262283  0.66133325    -0.53900
C3471       C  0.84035321  0.62924152  0.68113718     0.09300
C3472       C  0.82040428  0.65180277  0.66444367     0.20200
C3473       C  0.82338191  0.61273397  0.62295038    -0.54600
C3474       C  0.80618244  0.62966536  0.64244228     0.09400
C3475       C  0.85348443  0.65697222  0.62187196    -0.54100
C3476       C  0.83708095  0.67376551  0.64209651     0.10000
H3477       H  0.87227501  0.59621760  0.66976006     0.14500
H3478       H  0.80757201  0.66515437  0.68139153     0.00200
H3479       H  0.81589417  0.59619687  0.60667718     0.14800
H3480       H  0.86688271  0.66879871  0.60481485     0.14600
C3481       C  0.86008296  0.86792299  0.63644424     0.86400
C3482       C  0.86332243  0.83161110  0.63034985    -0.53900
C3483       C  0.84800028  0.81236767  0.64983587     0.09300
C3484       C  0.83031936  0.83119561  0.67360499     0.20200
C3485       C  0.83019746  0.87532711  0.63464459    -0.54600
C3486       C  0.81444354  0.85608681  0.65384786     0.09400
C3487       C  0.86545097  0.86959035  0.67196814    -0.54100
C3488       C  0.84985312  0.85072209  0.69144621     0.10000
H3489       H  0.87648804  0.82183030  0.61208046     0.14500
H3490       H  0.81756692  0.81530299  0.68849697     0.00200
H3491       H  0.82218217  0.89377494  0.61887941     0.14800
H3492       H  0.88072910  0.88364291  0.68152000     0.14600
C3493       C  0.86277514  0.86361636  0.88122381     0.86400
C3494       C  0.86635370  0.87308241  0.84595698    -0.53900
C3495       C  0.84948188  0.85846747  0.82719229     0.09300
C3496       C  0.82987152  0.83652381  0.84524370     0.20200
C3497       C  0.83291761  0.87155819  0.88909876    -0.54600
C3498       C  0.81608913  0.85774113  0.86972570     0.09400
C3499       C  0.86389187  0.82638668  0.88279536    -0.54100
C3500       C  0.84628094  0.81192981  0.86454260     0.10000
H3501       H  0.88213991  0.88821308  0.83655827     0.14500
H3502       H  0.81555705  0.82594643  0.82983443     0.00200
H3503       H  0.82469020  0.88551201  0.90827338     0.14800
H3504       H  0.87765642  0.81296464  0.89718411     0.14600
C3505       C  0.84683901  0.88221225  0.73998967    -0.05900
C3506       C  0.85092600  0.85194708  0.72642670     0.00000
C3507       C  0.85683939  0.82479996  0.74621632    -0.08600
C3508       C  0.85805817  0.82907732  0.77868098    -0.05900
C3509       C  0.85206925  0.85869445  0.79231208     0.00000
C3510       C  0.84637261  0.88592702  0.77276512    -0.08500
C3511       C  0.83815042  0.91810781  0.78634028     0.61900
H3512       H  0.84298127  0.90287672  0.72460780     0.12600
H3513       H  0.86320707  0.80891613  0.79406674     0.12600
C3514       C  0.86256240  0.79154442  0.73366676     0.62100
F3515       F  0.83278961  0.94114322  0.76313887    -0.23000
F3516       F  0.85794436  0.92942766  0.80396628    -0.20400
F3517       F  0.81550763  0.91432515  0.80512801    -0.20000
F3518       F  0.88171022  0.79342219  0.70983387    -0.20100
F3519       F  0.83987766  0.77911630  0.72268692    -0.20400
F3520       F  0.87178551  0.77020212  0.75653574    -0.23100
C3521       C  0.86420112  0.72192507  0.64566870    -0.05900
C3522       C  0.83878389  0.70948161  0.64442542     0.00000
C3523       C  0.81673427  0.73125508  0.64385601    -0.08600
C3524       C  0.82115994  0.76443394  0.64580812    -0.05900
C3525       C  0.84659751  0.77678297  0.64741642     0.00000
C3526       C  0.86876899  0.75499308  0.64710235    -0.08500
C3527       C  0.89767386  0.76380248  0.64855796     0.61900
H3528       H  0.88105364  0.70536462  0.64578245     0.12600
H3529       H  0.80451283  0.78133463  0.64563485     0.12600
C3530       C  0.78879302  0.72044287  0.63941480     0.62100
F3531       F  0.90905425  0.74602040  0.67267620    -0.23000
F3532       F  0.90174807  0.79576092  0.65379443    -0.20400
F3533       F  0.91076523  0.75599833  0.62052363    -0.20000
F3534       F  0.77869984  0.70557540  0.66657583    -0.20100
F3535       F  0.78865138  0.69959548  0.61481035    -0.20400
F3536       F  0.77201666  0.74624306  0.63242424    -0.23100
C3537       C  0.83860385  0.60333716  0.76783326    -0.05900
C3538       C  0.84966597  0.63019781  0.78066823     0.00000
C3539       C  0.86072167  0.65436169  0.76044984    -0.08600
C3540       C  0.85579266  0.65385202  0.72825779    -0.05900
C3541       C  0.84339831  0.62780742  0.71549201     0.00000
C3542       C  0.83641489  0.60084553  0.73526698    -0.08500
C3543       C  0.82688211  0.56893804  0.72398630     0.61900
H3544       H  0.83192706  0.58382658  0.78347049     0.12600
H3545       H  0.86283681  0.67300604  0.71243852     0.12600
C3546       C  0.87996722  0.67817871  0.77208534     0.62100
F3547       F  0.84477075  0.54472371  0.73210608    -0.23000
F3548       F  0.82405505  0.56837358  0.69194182    -0.20400
F3549       F  0.80270363  0.56213968  0.73864758    -0.20000
F3550       F  0.90169061  0.66137434  0.78326263    -0.20100
F3551       F  0.86859358  0.69604118  0.79602086    -0.20400
F3552       F  0.88870732  0.69928163  0.74827345    -0.23100
C3553       C  0.84211051  0.72196519  0.88769818    -0.05900
C3554       C  0.83588596  0.70838751  0.85902348     0.00000
C3555       C  0.82674924  0.73038805  0.83512277    -0.08600
C3556       C  0.83303624  0.76305987  0.83688285    -0.05900
C3557       C  0.84166784  0.77623939  0.86447263     0.00000
C3558       C  0.84284989  0.75550010  0.89155115    -0.08500
C3559       C  0.84227823  0.76767460  0.92485421     0.61900
H3560       H  0.84526489  0.70623656  0.90798861     0.12600
H3561       H  0.82993234  0.77862217  0.81661502     0.12600
C3562       C  0.80718934  0.72216359  0.81065369     0.62100
F3563       F  0.82956387  0.74616774  0.94551174    -0.23000
F3564       F  0.82849175  0.79677756  0.92697903    -0.20400
F3565       F  0.86772308  0.77096236  0.93441173    -0.20000
F3566       F  0.78632985  0.70578080  0.82518801    -0.20100
F3567       F  0.81919430  0.70444555  0.78691882    -0.20400
F3568       F  0.79625901  0.74960451  0.79656183    -0.23100
C3569       C  0.73157499  0.63861388  0.65676309    -0.05900
C3570       C  0.72252616  0.63987780  0.62608765     0.00000
C3571       C  0.74130080  0.63618346  0.60050737    -0.08600
C3572       C  0.76814178  0.63143387  0.60732070    -0.05900
C3573       C  0.77698480  0.63033289  0.63832242     0.00000
C3574       C  0.75790474  0.63268191  0.66351828    -0.08500
C3575       C  0.76308613  0.62760942  0.69804596     0.61900
H3576       H  0.71759464  0.64064138  0.67658460     0.12600
H3577       H  0.78261139  0.62962671  0.58793686     0.12600
C3578       C  0.73446035  0.63708711  0.56603729     0.62100
F3579       F  0.74494596  0.60650607  0.71170886    -0.23000
F3580       F  0.76040435  0.65667992  0.71293167    -0.20400
F3581       F  0.78756108  0.61440412  0.70293766    -0.20000
F3582       F  0.71265439  0.65655293  0.56026535    -0.20100
F3583       F  0.72977698  0.60618538  0.55697446    -0.20400
F3584       F  0.75517740  0.64905344  0.54721659    -0.23100
C3585       C  0.68282701  0.77371886  0.63608535    -0.05900
C3586       C  0.65927263  0.78980105  0.64518663     0.00000
C3587       C  0.63525123  0.77247685  0.64659872    -0.08600
C3588       C  0.63630766  0.73942371  0.63997965    -0.05900
C3589       C  0.66000074  0.72337524  0.63110808     0.00000
C3590       C  0.68352265  0.74130697  0.62772210    -0.08500
C3591       C  0.70905052  0.72765468  0.61314059     0.61900
H3592       H  0.70086527  0.78721541  0.63436028     0.12600
H3593       H  0.61834591  0.72576142  0.64231402     0.12600
C3594       C  0.60796937  0.78639369  0.65541993     0.62100
F3595       F  0.70366907  0.70847824  0.58856847    -0.23000
F3596       F  0.72273937  0.71013260  0.63543004    -0.20400
F3597       F  0.72515913  0.75184156  0.60097122    -0.20000
F3598       F  0.59184459  0.78358939  0.63036991    -0.20100
F3599       F  0.60776303  0.81827635  0.66321707    -0.20400
F3600       F  0.59729333  0.76902145  0.68096135    -0.23100
C3601       C  0.74031983  0.86118349  0.67734618    -0.05900
C3602       C  0.72865781  0.85970062  0.64820317     0.00000
C3603       C  0.74544398  0.85607554  0.62079525    -0.08600
C3604       C  0.77317179  0.85447877  0.62389632    -0.05900
C3605       C  0.78476338  0.85719709  0.65308889     0.00000
C3606       C  0.76792136  0.86144502  0.68027046    -0.08500
C3607       C  0.77858508  0.86905451  0.71186488     0.61900
H3608       H  0.72751407  0.86281331  0.69811183     0.12600
H3609       H  0.78617651  0.85146717  0.60326003     0.12600
C3610       C  0.73451855  0.85336114  0.58838068     0.62100
F3611       F  0.75864710  0.87810187  0.73320057    -0.23000
F3612       F  0.79568440  0.89434758  0.70803402    -0.20400
F3613       F  0.79142134  0.84254606  0.72484008    -0.20000
F3614       F  0.72569778  0.88325783  0.57760218    -0.20100
F3615       F  0.71389670  0.83217744  0.58942740    -0.20400
F3616       F  0.75360887  0.84218213  0.56683096    -0.23100
C3617       C  0.64866974  0.85185261  0.77786284    -0.05900
C3618       C  0.67124412  0.86408854  0.79041025     0.00000
C3619       C  0.68924433  0.88137963  0.77068076    -0.08600
C3620       C  0.68565662  0.88244036  0.73801630    -0.05900
C3621       C  0.66508448  0.86593052  0.72501150     0.00000
C3622       C  0.64570235  0.85138110  0.74531312    -0.08500
C3623       C  0.62269053  0.83419316  0.73272727     0.61900
H3624       H  0.63397935  0.84108569  0.79389132     0.12600
H3625       H  0.69890650  0.89608100  0.72244560     0.12600
C3626       C  0.71123233  0.89952667  0.78454029     0.62100
F3627       F  0.60599443  0.82190163  0.75652962    -0.23000
F3628       F  0.63238848  0.80880341  0.71515776    -0.20400
F3629       F  0.60804032  0.85530082  0.71430879    -0.20000
F3630       F  0.72868460  0.87800393  0.79855959    -0.20100
F3631       F  0.70064774  0.92020789  0.80689337    -0.20400
F3632       F  0.72503154  0.91773249  0.76191425    -0.23100
C3633       C  0.74262921  0.88004719  0.87006581    -0.05900
C3634       C  0.73209166  0.84916745  0.87211532     0.00000
C3635       C  0.74888932  0.82215434  0.87796832    -0.08600
C3636       C  0.77608472  0.82686973  0.87910046    -0.05900
C3637       C  0.78698629  0.85745122  0.87452222     0.00000
C3638       C  0.76993437  0.88486189  0.87086120    -0.08500
C3639       C  0.77872630  0.91943306  0.86674913     0.61900
H3640       H  0.72937604  0.90065304  0.86651792     0.12600
H3641       H  0.78930877  0.80624506  0.88232544     0.12600
C3642       C  0.73841906  0.78848679  0.88294417     0.62100
F3643       F  0.76920203  0.93265540  0.83913950    -0.23000
F3644       F  0.80573364  0.92268423  0.86557366    -0.20400
F3645       F  0.76822935  0.93693180  0.89162357    -0.20000
F3646       F  0.73051366  0.77739538  0.85475569    -0.20100
F3647       F  0.71734554  0.78887429  0.90469493    -0.20400
F3648       F  0.75742442  0.76704950  0.89417130    -0.23100
C3649       C  0.67461126  0.61078350  0.74851274    -0.05900
C3650       C  0.66438804  0.63622380  0.76666966     0.00000
C3651       C  0.64928926  0.66117787  0.75163229    -0.08600
C3652       C  0.64819371  0.66181436  0.71866907    -0.05900
C3653       C  0.65924740  0.63699503  0.70052853     0.00000
C3654       C  0.67175325  0.61024631  0.71574203    -0.08500
C3655       C  0.68048566  0.58031368  0.69815672     0.61900
H3656       H  0.68390032  0.59047928  0.76055175     0.12600
H3657       H  0.63786465  0.68163299  0.70690807     0.12600
C3658       C  0.63239586  0.68648937  0.76850478     0.62100
F3659       F  0.69485874  0.55893689  0.71670312    -0.23000
F3660       F  0.69613199  0.58804756  0.67186607    -0.20400
F3661       F  0.65839248  0.56491125  0.68903622    -0.20000
F3662       F  0.63920540  0.71676003  0.75714944    -0.20100
F3663       F  0.63470690  0.68544645  0.80054762    -0.20400
F3664       F  0.60616767  0.68200419  0.76251860    -0.23100
C3665       C  0.73894326  0.62708016  0.87308612    -0.05900
C3666       C  0.72969801  0.61629964  0.84480315     0.00000
C3667       C  0.74805974  0.60488953  0.82153968    -0.08600
C3668       C  0.77525481  0.60590701  0.82682435    -0.05900
C3669       C  0.78452995  0.61808850  0.85449322     0.00000
C3670       C  0.76613873  0.62875806  0.87820215    -0.08500
C3671       C  0.77507132  0.64270564  0.90833943     0.61900
H3672       H  0.72461946  0.63505585  0.89088011     0.12600
H3673       H  0.78958294  0.59834475  0.80877588     0.12600
C3674       C  0.73891013  0.59215612  0.79114709     0.62100
F3675       F  0.75403401  0.65526020  0.92633369    -0.23000
F3676       F  0.79243688  0.66730185  0.90153203    -0.20400
F3677       F  0.78741892  0.61879114  0.92602294    -0.20000
F3678       F  0.72739784  0.61699341  0.77393272    -0.20100
F3679       F  0.72079239  0.56826659  0.79758486    -0.20400
F3680       F  0.75962836  0.57922523  0.77304202    -0.23100
C3681       C  0.68065372  0.72199980  0.82045110    -0.05900
C3682       C  0.67836088  0.70344403  0.84836341     0.00000
C3683       C  0.67657646  0.71920257  0.87745168    -0.08600
C3684       C  0.67342935  0.75281509  0.87709066    -0.05900
C3685       C  0.67413152  0.77162882  0.84902254     0.00000
C3686       C  0.67820579  0.75578531  0.81987329    -0.08500
C3687       C  0.67608135  0.77273849  0.78791693     0.61900
H3688       H  0.68220662  0.70953992  0.79854691     0.12600
H3689       H  0.67112181  0.76467835  0.89938498     0.12600
C3690       C  0.67885321  0.70229397  0.90942034     0.62100
F3691       F  0.68004277  0.75187550  0.76337806    -0.23000
F3692       F  0.69460640  0.79606631  0.78284247    -0.20400
F3693       F  0.65099280  0.78594472  0.78612980    -0.20000
F3694       F  0.68818949  0.67091954  0.90742700    -0.20100
F3695       F  0.65441575  0.70256926  0.92523991    -0.20400
F3696       F  0.69638242  0.71840759  0.92691827    -0.23100
C3697       C  0.58872294  0.57892704  0.88811041    -0.05900
C3698       C  0.59595517  0.56627753  0.91748902     0.00000
C3699       C  0.62136221  0.57342074  0.92808067    -0.08600
C3700       C  0.63944591  0.58886825  0.90682469    -0.05900
C3701       C  0.63245564  0.60009720  0.87664162     0.00000
C3702       C  0.60523974  0.59894681  0.86952495    -0.08500
C3703       C  0.59134512  0.62090446  0.84580531     0.61900
H3704       H  0.56893469  0.57533158  0.88044686     0.12600
H3705       H  0.65902759  0.59351731  0.91433929     0.12600
C3706       C  0.62905059  0.56725334  0.96194421     0.62100
F3707       F  0.58770538  0.60461410  0.81861969    -0.23000
F3708       F  0.60483185  0.64873501  0.83881916    -0.20400
F3709       F  0.56670686  0.63053406  0.85811833    -0.20000
F3710       F  0.63159552  0.53462754  0.96861106    -0.20100
F3711       F  0.61000473  0.58073280  0.98215610    -0.20400
F3712       F  0.65291265  0.58090957  0.96779117    -0.23100
C3713       C  0.60480617  0.94661507  0.60495409    -0.05900
C3714       C  0.60051140  0.93408626  0.57553299     0.00000
C3715       C  0.61786707  0.90985874  0.56356048    -0.08600
C3716       C  0.63692387  0.89605767  0.58326142    -0.05900
C3717       C  0.63920407  0.90569443  0.61451442     0.00000
C3718       C  0.62537732  0.93453316  0.62356213    -0.08500
C3719       C  0.63387109  0.95606259  0.64920239     0.61900
H3720       H  0.59295321  0.96726809  0.61262317     0.12600
H3721       H  0.64949907  0.87642215  0.57480069     0.12600
C3722       C  0.61585495  0.89828021  0.53032990     0.62100
F3723       F  0.63389387  0.98771251  0.63824369    -0.23000
F3724       F  0.65924706  0.94856308  0.65819233    -0.20400
F3725       F  0.61624217  0.95408165  0.67487561    -0.20000
F3726       F  0.62172115  0.92377287  0.00902960    -0.20100
F3727       F  0.59072605  0.88737168  0.52621813    -0.20400
F3728       F  0.63379192  0.87343857  0.52382410    -0.23100
C3729       C  0.86713317  0.58258731  0.58227102    -0.05900
C3730       C  0.87437194  0.60347488  0.60577691     0.00000
C3731       C  0.90201337  0.60791845  0.60953827    -0.08600
C3732       C  0.92029321  0.59018555  0.59110164    -0.05900
C3733       C  0.91303180  0.56858105  0.56855723     0.00000
C3734       C  0.88571288  0.56486416  0.56376309    -0.08500
C3735       C  0.87565106  0.54258485  0.53942170     0.61900
H3736       H  0.84671672  0.57984943  0.57783804     0.12600
H3737       H  0.94105298  0.59348398  0.59484874     0.12600
C3738       C  0.91498208  0.63029416  0.63192698     0.62100
F3739       F  0.84781233  0.54221860  0.04269103    -0.23000
F3740       F  0.88266245  0.50888525  0.04835668    -0.20400
F3741       F  0.88442921  0.55069023  0.01294591    -0.20000
F3742       F  0.93083317  0.61198458  0.65161841    -0.20100
F3743       F  0.89821342  0.64859580  0.65069606    -0.20400
F3744       F  0.93082482  0.65139177  0.61434598    -0.23100
C3745       C  0.60529878  0.62767259  0.58178992    -0.05900
C3746       C  0.62937131  0.61342077  0.59162957     0.00000
C3747       C  0.63340142  0.57948273  0.58637764    -0.08600
C3748       C  0.61433368  0.56287827  0.57039401    -0.05900
C3749       C  0.59049300  0.57729973  0.56140677     0.00000
C3750       C  0.58603562  0.61055515  0.56672951    -0.08500
C3751       C  0.56100861  0.62831886  0.55665923     0.61900
H3752       H  0.60039848  0.65217804  0.58752272     0.12600
H3753       H  0.61765470  0.53762834  0.56552718     0.12600
C3754       C  0.65740109  0.55929458  0.59624186     0.62100
F3755       F  0.56284875  0.66135966  0.55861152    -0.23000
F3756       F  0.53977323  0.61881128  0.57595560    -0.20400
F3757       F  0.55636274  0.62180058  0.52575898    -0.20000
F3758       F  0.66609817  0.56803808  0.62479834    -0.20100
F3759       F  0.67751899  0.56194247  0.57338361    -0.20400
F3760       F  0.65152077  0.52701761  0.59954707    -0.23100
C3761       C  0.92888688  0.89330748  0.91305411    -0.05900
C3762       C  0.92008469  0.91325793  0.93767163     0.00000
C3763       C  0.89250996  0.91478180  0.94548712    -0.08600
C3764       C  0.87522899  0.89775038  0.92738750    -0.05900
C3765       C  0.88369934  0.87895659  0.90148148     0.00000
C3766       C  0.91172634  0.87575910  0.89522353    -0.08500
C3767       C  0.92598684  0.85475395  0.87063768     0.61900
H3768       H  0.94990988  0.89133495  0.90723748     0.12600
H3769       H  0.85474404  0.89946669  0.93425329     0.12600
C3770       C  0.88077930  0.93380692  0.97301439     0.62100
F3771       F  0.94074251  0.87419211  0.84997248    -0.23000
F3772       F  0.91006269  0.83678263  0.85312342    -0.20400
F3773       F  0.94303308  0.83344041  0.88570284    -0.20000
F3774       F  0.85418130  0.92814897  0.97897268    -0.20100
F3775       F  0.88325062  0.96644768  0.96672542    -0.20400
F3776       F  0.89361007  0.92508950  0.99998969    -0.23100
C3777       C  0.89185479  0.57110724  0.87811672    -0.05900
C3778       C  0.87799020  0.59809863  0.89086575     0.00000
C3779       C  0.88140714  0.60395464  0.92341892    -0.08600
C3780       C  0.90218431  0.58769616  0.93885038    -0.05900
C3781       C  0.91747988  0.56328765  0.92455281     0.00000
C3782       C  0.91143979  0.55367355  0.89435169    -0.08500
C3783       C  0.92517738  0.52439240  0.87984421     0.61900
H3784       H  0.88688671  0.56277468  0.85547860     0.12600
H3785       H  0.90599387  0.59343093  0.96287085     0.12600
C3786       C  0.86360387  0.62530476  0.94413544     0.62100
F3787       F  0.91560428  0.51791051  0.85085221    -0.23000
F3788       F  0.91041595  0.99479405  0.91207861    -0.20400
F3789       F  0.95197632  0.52941978  0.87575114    -0.20000
F3790       F  0.84036570  0.63498885  0.93077752    -0.20100
F3791       F  0.87718009  0.65222117  0.95165631    -0.20400
F3792       F  0.85666419  0.60841352  0.97169099    -0.23100
C3793       C  0.63764953  0.90914457  0.89818271    -0.05900
C3794       C  0.63770765  0.87522516  0.90158018     0.00000
C3795       C  0.62087263  0.86130534  0.92572726    -0.08600
C3796       C  0.60058524  0.88075669  0.93933562    -0.05900
C3797       C  0.59920411  0.91408556  0.93334246     0.00000
C3798       C  0.61865071  0.92885234  0.91346029    -0.08500
C3799       C  0.61896894  0.96508144  0.90759374     0.61900
H3800       H  0.65244493  0.92023373  0.88255721     0.12600
H3801       H  0.58648748  0.87013941  0.95629343     0.12600
C3802       C  0.62543778  0.82833822  0.94123062     0.62100
F3803       F  0.63827580  0.97404042  0.88521543    -0.23000
F3804       F  0.62411953  0.97982762  0.93512200    -0.20400
F3805       F  0.59478810  0.97610943  0.89720057    -0.20000
F3806       F  0.62087972  0.83001998  0.97344368    -0.20100
F3807       F  0.65119901  0.81715873  0.93653544    -0.20400
F3808       F  0.60809916  0.80671566  0.93010857    -0.23100
C3809       C  0.90526459  0.89983428  0.56653121    -0.05900
C3810       C  0.91903057  0.92362691  0.58099188     0.00000
C3811       C  0.91043188  0.93315802  0.61134189    -0.08600
C3812       C  0.88968011  0.91650841  0.62723094    -0.05900
C3813       C  0.87764035  0.88983183  0.61437960     0.00000
C3814       C  0.88379962  0.88396145  0.58185909    -0.08500
C3815       C  0.86838269  0.86266506  0.56122366     0.61900
H3816       H  0.91103872  0.89401558  0.54251345     0.12600
H3817       H  0.88275574  0.92468208  0.64998974     0.12600
C3818       C  0.92315166  0.96090211  0.62681769     0.62100
F3819       F  0.86262700  0.87957252  0.53375026    -0.23000
F3820       F  0.84461689  0.85297189  0.57490888    -0.20400
F3821       F  0.88370913  0.83578756  0.55346655    -0.20000
F3822       F  0.92143114  0.98840932  0.60779252    -0.20100
F3823       F  0.94943955  0.95327290  0.63140613    -0.20400
F3824       F  0.91102187  0.96755865  0.65575196    -0.23100
loop_ 
_geom_bond_atom_site_label_1 
_geom_bond_atom_site_label_2 
_geom_bond_distance 
_geom_bond_site_symmetry_2 
_ccdc_geom_bond_type 
O1            C3   1.289       .  A
O1        Zr1925   2.446       .  S
O2            C3   1.282       .  A
O2          Zr39   2.416       .  S
C3          C416   1.499       .  S
O4            C6   1.293       .  A
O4          Zr16   2.471       .  S
O5            C6   1.283       .  A
O5         Zr996   2.411   1_554  S
C6          C368   1.479       .  S
O7            C9   1.290       .  A
O7        Zr1928   2.454       .  S
O8            C9   1.285       .  A
O8         Zr517   2.417   1_554  S
C9          C464   1.474       .  S
O10          C12   1.285       .  A
O10         Zr13   2.431       .  S
O11          C12   1.285       .  A
O11       Zr1474   2.420       .  S
C12         C451   1.466       .  S
Zr13       O1913   2.445   1_455  S
Zr13         O14   2.435       .  S
Zr13         O15   2.435       .  S
Zr13       O2409   2.369   1_455  S
Zr13        O498   2.373       .  S
Zr13        O999   2.377       .  S
Zr13       O1957   2.371   1_455  S
O14        H1969   0.990       .  S
O15          H60   0.990       .  S
O15        H1968   0.990       .  S
Zr16       O1919   2.462   1_455  S
Zr16         O18   2.434       .  S
Zr16       O1929   2.435       .  S
Zr16         O20   2.368       .  S
Zr16       O1931   2.380   1_455  S
Zr16       O1956   2.373   1_455  S
Zr16       O1002   2.377       .  S
O17       Zr1928   2.436       .  S
O17        H1970   0.990       .  S
O17        H1973   0.990       .  S
O18        H1963   0.990   1_455  S
O19       Zr2403   2.365   1_554  S
O19       Zr1928   2.381       .  S
O19        Zr517   2.378   1_554  S
O20        Zr491   2.380   1_554  S
O20        Zr996   2.391   1_554  S
O20          H47   0.966       .  S
O21          C23   1.288       .  A
O21       Zr1945   2.436       .  S
O22          C23   1.287       .  A
O22        Zr518   2.438   1_545  S
C23         C352   1.500       .  S
O24          C26   1.287       .  A
O24         Zr36   2.425       .  S
O25          C26   1.277       .  A
O25       Zr1473   2.393   1_545  S
C26         C387   1.486       .  S
O27          C29   1.287       .  A
O27       Zr1948   2.447       .  S
O28          C29   1.290       .  A
O28         Zr40   2.443   1_545  S
C29         C403   1.496       .  S
O30          C32   1.288       .  A
O30         Zr33   2.446       .  S
O31          C32   1.288       .  A
O31        Zr995   2.437   1_545  S
C32         C435   1.479       .  S
Zr33       O1933   2.442       .  S
Zr33         O34   2.435       .  S
Zr33         O35   2.435       .  S
Zr33         O42   2.372       .  S
Zr33       O1953   2.368       .  S
Zr33       O1001   2.376   1_545  S
Zr33       O1955   2.371   1_545  S
O34          H59   0.990       .  S
O34        H1966   0.990       .  S
O35        H1967   0.989       .  S
Zr36       O1939   2.438       .  S
Zr36         O38   2.435       .  S
Zr36       O1949   2.435       .  S
Zr36        O520   2.368   1_554  S
Zr36       O2431   2.362   1_554  S
Zr36       O1958   2.368   1_545  S
Zr36       O1000   2.371   1_545  S
O37       Zr1948   2.435       .  S
O37        H1965   0.990   1_455  S
O38          H62   0.990       .  S
O38        H1964   0.990       .  S
Zr39        O486   2.423       .  S
Zr39       O1459   2.417       .  S
Zr39        O987   2.425       .  S
Zr39         O45   2.378       .  S
Zr39        O497   2.382       .  S
Zr39        O998   2.380       .  S
Zr39        O522   2.389       .  S
Zr40        O961   2.422       .  S
Zr40       O1445   2.427   1_554  S
Zr40        O500   2.425   1_564  S
Zr40         O46   2.381   1_565  S
Zr40        O976   2.388       .  S
Zr40        O519   2.383   1_564  S
Zr40        O521   2.384   1_554  S
O41       Zr1945   2.365       .  S
O41       Zr2426   2.367       .  S
O41        Zr518   2.377   1_545  S
O41          H49   0.966       .  S
O42        Zr514   2.370       .  S
O42        Zr995   2.385   1_545  S
O43        Zr969   2.386       .  S
O43       Zr1945   2.375   1_565  S
O43        Zr518   2.387       .  S
O44       Zr1928   2.371       .  S
O44        Zr992   2.367       .  S
O44        Zr517   2.386   1_554  S
O44          H48   0.966       .  S
O45       Zr1925   2.366       .  S
O45        Zr989   2.369       .  S
O45          H50   0.966       .  S
O46        Zr972   2.378   1_545  S
O46       Zr1948   2.372       .  S
H51        O1930   0.990       .  S
H52        O1950   0.990   1_455  S
H53        O1949   0.990       .  S
H54        O1946   0.990       .  S
H55        O1947   0.990       .  S
H56        O1927   0.990       .  S
H57        O1926   0.990       .  S
H58        O1929   0.990       .  S
H61        O1929   0.990       .  S
C63          C64   1.534       .  S
C63          C69   1.537       .  S
C63          C67   1.552       .  S
C63         C355   1.543       .  S
C64          H71   1.084       .  S
C64          C65   1.358       .  D
C65          C66   1.549       .  S
C65         C304   1.485       .  S
C66          C70   1.542       .  S
C66          C68   1.543       .  S
C66          H72   1.110       .  S
C67          H73   1.085       .  S
C67          C68   1.369       .  D
C68         C320   1.493       .  S
C69          H74   1.085       .  S
C69          C70   1.369       .  D
C70         C336   1.497       .  S
C75          C76   1.550       .  S
C75          C81   1.538       .  S
C75          C79   1.528       .  S
C75         C448   1.536       .  S
C76          H83   1.080       .  S
C76          C77   1.375       .  D
C77          C78   1.546       .  S
C77         C339   1.507       .  S
C78          C82   1.542       .  S
C78          C80   1.537       .  S
C78          H84   1.104       .  S
C79          H85   1.087       .  S
C79          C80   1.357       .  D
C80         C288   1.478       .  S
C81          H86   1.087       .  S
C81          C82   1.357       .  D
C82         C272   1.472       .  S
C87          C88   1.539       .  S
C87          C93   1.548       .  S
C87          C91   1.548       .  S
C87         C371   1.548       .  S
C88          H95   1.074       .  S
C88          C89   1.355       .  D
C89          C90   1.534       .  S
C89         C275   1.479       .  S
C90          C94   1.544       .  S
C90          C92   1.542       .  S
C90          H96   1.111       .  S
C91          H97   1.084       .  S
C91          C92   1.375       .  D
C92         C256   1.501       .  S
C93          H98   1.086       .  S
C93          C94   1.362       .  D
C94         C240   1.494       .  S
C99         C100   1.569       .  S
C99         C105   1.542       .  S
C99         C103   1.546       .  S
C99         C400   1.562       .  S
C100        H107   1.081       .  S
C100        C101   1.369       .  D
C101        C102   1.524       .  S
C101        C243   1.498       .  S
C102        C106   1.529       .  S
C102        C104   1.539       .  S
C102        H108   1.108       .  S
C103        H109   1.076       .  S
C103        C104   1.370       .  D
C104        C224   1.494       .  S
C105        H110   1.086       .  S
C105        C106   1.360       .  D
C106        C307   1.480       .  S
C111        C112   1.549       .  S
C111        C117   1.545       .  S
C111        C115   1.539       .  S
C111        C432   1.549       .  S
C112        H119   1.083       .  S
C112        C113   1.384       .  D
C113        C114   1.545       .  S
C113        C208   1.522       .  S
C114        C118   1.535       .  S
C114        C116   1.532       .  S
C114        H120   1.091       .  S
C115        H121   1.085       .  S
C115        C116   1.362       .  D
C116        C323   1.487       .  S
C117        H122   1.085       .  S
C117        C118   1.357       .  D
C118        C192   1.475       .  S
C123        C124   1.529       .  S
C123        C129   1.530       .  S
C123        C127   1.551       .  S
C123        C384   1.526       .  S
C124        H131   1.087       .  S
C124        C125   1.354       .  D
C125        C126   1.543       .  S
C125        C195   1.475       .  S
C126        C130   1.539       .  S
C126        C128   1.547       .  S
C126        H132   1.104       .  S
C127        H133   1.080       .  S
C127        C128   1.372       .  D
C128        C227   1.497       .  S
C129        H134   1.087       .  S
C129        C130   1.359       .  D
C130        C176   1.488       .  S
C135        C136   1.542       .  S
C135        C141   1.551       .  S
C135        C139   1.540       .  S
C135        C467   1.547       .  S
C136        H143   1.082       .  S
C136        C137   1.363       .  D
C137        C138   1.539       .  S
C137        C179   1.486       .  S
C138        C142   1.540       .  S
C138        C140   1.548       .  S
C138        H144   1.106       .  S
C139        H145   1.086       .  S
C139        C140   1.371       .  D
C140        C259   1.505       .  S
C141        H146   1.085       .  S
C141        C142   1.361       .  D
C142        C160   1.491       .  S
C147        C148   1.542       .  S
C147        C153   1.537       .  S
C147        C151   1.562       .  S
C147        C419   1.544       .  S
C148        H155   1.086       .  S
C148        C149   1.362       .  D
C149        C150   1.531       .  S
C149        C163   1.477       .  S
C150        C154   1.542       .  S
C150        C152   1.525       .  S
C150        H156   1.110       .  S
C151        H157   1.080       .  S
C151        C152   1.362       .  D
C152        C291   1.480       .  S
C153        H158   1.082       .  S
C153        C154   1.366       .  D
C154        C211   1.499       .  S
C159        C160   1.405       .  A
C159        C164   1.407       .  A
C159        H166   1.082       .  S
C160        C161   1.417       .  A
C161        C168   1.509       .  S
C161        C162   1.402       .  A
C162        C163   1.396       .  A
C162        H167   1.083       .  S
C163        C164   1.414       .  A
C164        C165   1.513       .  S
C165        F169   1.385       .  S
C165        F170   1.382       .  S
C165        F171   1.379       .  S
C168        F172   1.377       .  S
C168        F173   1.379       .  S
C168        F174   1.385       .  S
C175        C176   1.403       .  A
C175        C180   1.403       .  A
C175        H182   1.083       .  S
C176        C177   1.414       .  A
C177        C184   1.516       .  S
C177        C178   1.406       .  A
C178        C179   1.405       .  A
C178        H183   1.083       .  S
C179        C180   1.424       .  A
C180        C181   1.522       .  S
C181        F185   1.384       .  S
C181        F186   1.374       .  S
C181        F187   1.384       .  S
C184        F188   1.379       .  S
C184        F189   1.382       .  S
C184        F190   1.382       .  S
C191        C192   1.400       .  A
C191        C196   1.402       .  A
C191        H198   1.085       .  S
C192        C193   1.418       .  A
C193        C200   1.520       .  S
C193        C194   1.402       .  A
C194        C195   1.401       .  A
C194        H199   1.085       .  S
C195        C196   1.422       .  A
C196        C197   1.522       .  S
C197        F201   1.383       .  S
C197        F202   1.380       .  S
C197        F203   1.384       .  S
C200        F204   1.383       .  S
C200        F205   1.379       .  S
C200        F206   1.383       .  S
C207        C208   1.412       .  A
C207        C212   1.408       .  A
C207        H214   1.082       .  S
C208        C209   1.432       .  A
C209        C216   1.521       .  S
C209        C210   1.408       .  A
C210        C211   1.401       .  A
C210        H215   1.080       .  S
C211        C212   1.420       .  A
C212        C213   1.521       .  S
C213        F217   1.385       .  S
C213        F218   1.384       .  S
C213        F219   1.381       .  S
C216        F220   1.384       .  S
C216        F221   1.374       .  S
C216        F222   1.386       .  S
C223        C224   1.404       .  A
C223        C228   1.395       .  A
C223        H230   1.081       .  S
C224        C225   1.423       .  A
C225        C232   1.523       .  S
C225        C226   1.410       .  A
C226        C227   1.411       .  A
C226        H231   1.083       .  S
C227        C228   1.416       .  A
C228        C229   1.514       .  S
C229        F233   1.384       .  S
C229        F234   1.383       .  S
C229        F235   1.369       .  S
C232        F236   1.378       .  S
C232        F237   1.382       .  S
C232        F238   1.385       .  S
C239        C240   1.399       .  A
C239        C244   1.402       .  A
C239        H246   1.082       .  S
C240        C241   1.428       .  A
C241        C248   1.520       .  S
C241        C242   1.413       .  A
C242        C243   1.403       .  A
C242        H247   1.085       .  S
C243        C244   1.420       .  A
C244        C245   1.514       .  S
C245        F249   1.377       .  S
C245        F250   1.379       .  S
C245        F251   1.384       .  S
C248        F252   1.383       .  S
C248        F253   1.376       .  S
C248        F254   1.384       .  S
C255        C256   1.400       .  A
C255        C260   1.406       .  A
C255        H262   1.075       .  S
C256        C257   1.419       .  A
C257        C264   1.519       .  S
C257        C258   1.418       .  A
C258        C259   1.411       .  A
C258        H263   1.083       .  S
C259        C260   1.420       .  A
C260        C261   1.517       .  S
C261        F265   1.382       .  S
C261        F266   1.379       .  S
C261        F267   1.378       .  S
C264        F268   1.381       .  S
C264        F269   1.382       .  S
C264        F270   1.385       .  S
C271        C272   1.398       .  A
C271        C276   1.398       .  A
C271        H278   1.083       .  S
C272        C273   1.408       .  A
C273        C280   1.516       .  S
C273        C274   1.409       .  A
C274        C275   1.408       .  A
C274        H279   1.081       .  S
C275        C276   1.412       .  A
C276        C277   1.514       .  S
C277        F281   1.384       .  S
C277        F282   1.381       .  S
C277        F283   1.382       .  S
C280        F284   1.382       .  S
C280        F285   1.384       .  S
C280        F286   1.384       .  S
C287        C288   1.402       .  A
C287        C292   1.406       .  A
C287        H294   1.085       .  S
C288        C289   1.411       .  A
C289        C296   1.514       .  S
C289        C290   1.399       .  A
C290        C291   1.403       .  A
C290        H295   1.083       .  S
C291        C292   1.423       .  A
C292        C293   1.521       .  S
C293        F297   1.384       .  S
C293        F298   1.377       .  S
C293        F299   1.383       .  S
C296        F300   1.380       .  S
C296        F301   1.382       .  S
C296        F302   1.385       .  S
C303        C304   1.403       .  A
C303        C308   1.407       .  A
C303        H310   1.081       .  S
C304        C305   1.423       .  A
C305        C312   1.516       .  S
C305        C306   1.403       .  A
C306        C307   1.397       .  A
C306        H311   1.085       .  S
C307        C308   1.416       .  A
C308        C309   1.517       .  S
C309        F313   1.385       .  S
C309        F314   1.379       .  S
C309        F315   1.381       .  S
C312        F316   1.382       .  S
C312        F317   1.374       .  S
C312        F318   1.383       .  S
C319        C320   1.404       .  A
C319        C324   1.410       .  A
C319        H326   1.080       .  S
C320        C321   1.415       .  A
C321        C328   1.510       .  S
C321        C322   1.409       .  A
C322        C323   1.402       .  A
C322        H327   1.083       .  S
C323        C324   1.416       .  A
C324        C325   1.517       .  S
C325        F329   1.384       .  S
C325        F330   1.382       .  S
C325        F331   1.382       .  S
C328        F332   1.379       .  S
C328        F333   1.384       .  S
C328        F334   1.385       .  S
C335        C336   1.402       .  A
C335        C340   1.412       .  A
C335        H342   1.081       .  S
C336        C337   1.418       .  A
C337        C344   1.519       .  S
C337        C338   1.403       .  A
C338        C339   1.406       .  A
C338        H343   1.084       .  S
C339        C340   1.429       .  A
C340        C341   1.518       .  S
C341        F345   1.384       .  S
C341        F346   1.374       .  S
C341        F347   1.377       .  S
C344        F348   1.380       .  S
C344        F349   1.383       .  S
C344        F350   1.384       .  S
C351        C352   1.407       .  A
C351        C356   1.404       .  A
C351        H358   1.084       .  S
C352        C353   1.423       .  A
C353        C360   1.520       .  S
C353        C354   1.412       .  A
C354        C355   1.410       .  A
C354        H359   1.080       .  S
C355        C356   1.429       .  A
C356        C357   1.524       .  S
C357        F361   1.383       .  S
C357        F362   1.377       .  S
C357        F363   1.385       .  S
C360        F364   1.381       .  S
C360        F365   1.383       .  S
C360        F366   1.384       .  S
C367        C368   1.399       .  A
C367        C372   1.410       .  A
C367        H374   1.085       .  S
C368        C369   1.413       .  A
C369        C376   1.515       .  S
C369        C370   1.406       .  A
C370        C371   1.409       .  A
C370        H375   1.083       .  S
C371        C372   1.431       .  A
C372        C373   1.520       .  S
C373        F377   1.380       .  S
C373        F378   1.384       .  S
C373        F379   1.383       .  S
C376        F381   1.383       .  S
C376        F382   1.383       .  S
C376        F858   1.381       .  S
F380        C854   1.381       .  S
C383        C384   1.410       .  A
C383        C388   1.404       .  A
C383        H390   1.070       .  S
C384        C385   1.435       .  A
C385        C392   1.535       .  S
C385        C386   1.394       .  A
C386        C387   1.401       .  A
C386        H391   1.084       .  S
C387        C388   1.421       .  A
C388        C389   1.525       .  S
C389        F871   1.385       .  S
C389        F872   1.384       .  S
C389        F873   1.382       .  S
C392        F396   1.384       .  S
C392        F397   1.372       .  S
C392        F398   1.384       .  S
F393        C867   1.385       .  S
F394        C867   1.383       .  S
F395        C867   1.380       .  S
C399        C400   1.415       .  A
C399        C404   1.408       .  A
C399        H406   1.071       .  S
C400        C401   1.443       .  A
C401        C408   1.528       .  S
C401        C402   1.416       .  A
C402        C403   1.399       .  A
C402        H407   1.083       .  S
C403        C404   1.416       .  A
C404        C405   1.522       .  S
C405        F409   1.385       .  S
C405        F410   1.382       .  S
C405        F411   1.384       .  S
C408        F412   1.375       .  S
C408        F413   1.381       .  S
C408        F414   1.383       .  S
C415        C416   1.406       .  A
C415        C420   1.408       .  A
C415        H422   1.084       .  S
C416        C417   1.422       .  A
C417        C424   1.524       .  S
C417        C418   1.404       .  A
C418        C419   1.410       .  A
C418        H423   1.070       .  S
C419        C420   1.434       .  A
C420        C421   1.528       .  S
C421        F425   1.383       .  S
C421        F426   1.375       .  S
C421        F427   1.385       .  S
C424        F428   1.385       .  S
C424        F429   1.383       .  S
C424        F430   1.378       .  S
C431        C432   1.416       .  A
C431        C436   1.407       .  A
C431        H438   1.079       .  S
C432        C433   1.432       .  A
C433        C440   1.521       .  S
C433        C434   1.411       .  A
C434        C435   1.399       .  A
C434        H439   1.084       .  S
C435        C436   1.409       .  A
C436        C437   1.519       .  S
C437        F441   1.384       .  S
C437        F443   1.382       .  S
C437       F1398   1.383   1_545  S
C440        F444   1.378       .  S
C440        F445   1.382       .  S
C440        F446   1.385       .  S
F442       C1393   1.384       .  S
C447        C448   1.415       .  A
C447        C452   1.399       .  A
C447        H454   1.081       .  S
C448        C449   1.428       .  A
C449        C456   1.520       .  S
C449        C450   1.407       .  A
C450        C451   1.400       .  A
C450        H455   1.085       .  S
C451        C452   1.408       .  A
C452        C453   1.520       .  S
C453        F457   1.385       .  S
C453        F458   1.379       .  S
C453        F459   1.384       .  S
C456        F460   1.382       .  S
C456        F461   1.381       .  S
C456        F462   1.382       .  S
C463        C464   1.397       .  A
C463        C468   1.407       .  A
C463        H470   1.085       .  S
C464        C465   1.409       .  A
C465        C472   1.518       .  S
C465        C466   1.407       .  A
C466        C467   1.415       .  A
C466        H471   1.080       .  S
C467        C468   1.432       .  A
C468        C469   1.521       .  S
C469        F473   1.384       .  S
C469        F474   1.380       .  S
C469        F475   1.384       .  S
C472        F476   1.383       .  S
C472        F477   1.383       .  S
C472        F478   1.384       .  S
O479        C481   1.291       .  A
O479      Zr2403   2.450       .  S
O480        C481   1.283       .  A
O480       Zr517   2.419       .  S
C481        C894   1.503       .  S
O482        C484   1.291       .  A
O482       Zr494   2.458       .  S
O483        C484   1.284       .  A
O483      Zr1474   2.416       .  S
C484        C846   1.475       .  S
O485        C487   1.293       .  A
O485      Zr2406   2.468       .  S
O486        C487   1.285       .  A
C487        C942   1.484       .  S
O488        C490   1.286       .  A
O488       Zr491   2.434       .  S
O489        C490   1.288       .  A
O489       Zr996   2.431       .  S
C490        C929   1.473       .  S
Zr491      O2391   2.459   1_455  S
Zr491       O492   2.434       .  S
Zr491       O493   2.436       .  S
Zr491      O1931   2.368   1_456  S
Zr491      O1477   2.381       .  S
Zr491      O2435   2.371   1_455  S
O492       H2447   0.990       .  S
O493       H2446   0.990       .  S
O493        H538   0.990   1_455  S
Zr494      O2397   2.465   1_455  S
Zr494      O2407   2.434       .  S
Zr494       O496   2.434       .  S
Zr494       O498   2.371       .  S
Zr494      O2409   2.377   1_455  S
Zr494      O2434   2.369   1_455  S
Zr494      O1480   2.379       .  S
O495      Zr2406   2.435       .  S
O495       H2448   0.990       .  S
O495       H2451   0.990       .  S
O496       H2441   0.990   1_455  S
O497      Zr1925   2.371       .  S
O497      Zr2406   2.381       .  S
O498      Zr1474   2.386       .  S
O498        H525   0.967       .  S
O499        C501   1.291       .  A
O499      Zr2423   2.449       .  S
O500        C501   1.284       .  A
C501        C830   1.502       .  S
O502        C504   1.287       .  A
O502       Zr514   2.426       .  S
O503        C504   1.280       .  A
O503       Zr995   2.402   1_545  S
C504        C865   1.484       .  S
O505        C507   1.287       .  A
O505      Zr2426   2.442       .  S
O506        C507   1.290       .  A
O506       Zr518   2.438   1_545  S
C507        C881   1.495       .  S
O508        C510   1.285       .  A
O508       Zr511   2.435       .  S
O509        C510   1.287       .  A
O509      Zr1473   2.432   1_546  S
C510        C913   1.472       .  S
Zr511      O2411   2.439       .  S
Zr511       O512   2.437       .  S
Zr511       O513   2.434       .  S
Zr511      O2431   2.365       .  S
Zr511       O520   2.372       .  S
Zr511      O1479   2.375   1_545  S
Zr511      O2433   2.368   1_545  S
O512       H2444   0.990       .  S
O512        H537   0.990       .  S
O513       H2445   0.990       .  S
Zr514      O2417   2.446       .  S
Zr514      O2427   2.434       .  S
Zr514       O516   2.434       .  S
Zr514      O1953   2.363       .  S
Zr514      O2436   2.365   1_545  S
Zr514      O1478   2.367   1_545  S
O515      Zr2426   2.433       .  S
O515       H2443   0.990       .  S
O516       H2442   0.990       .  S
O516        H540   0.990       .  S
Zr517       O981   2.409   1_556  S
Zr517      O1465   2.420       .  S
Zr517      O1476   2.379       .  S
Zr517       O523   2.378       .  S
Zr518      O1439   2.425       .  S
Zr518       O967   2.414       .  S
Zr518      O1454   2.392       .  S
Zr518       O524   2.383       .  S
O519      Zr2423   2.375       .  S
O519      Zr1948   2.361   1_556  S
O519        H527   0.966       .  S
O520      Zr1473   2.381   1_546  S
O521      Zr1447   2.378       .  S
O521      Zr2423   2.368   1_565  S
O522      Zr2406   2.370       .  S
O522      Zr1470   2.374       .  S
O522        H526   0.966       .  S
O523      Zr2403   2.369       .  S
O523      Zr1467   2.369       .  S
O523        H528   0.966       .  S
O524      Zr1450   2.376       .  S
O524      Zr2426   2.370   1_565  S
H529       O2408   0.990       .  S
H530       O2428   0.990   1_655  S
H531       O2427   0.990       .  S
H532       O2424   0.990       .  S
H533       O2425   0.990   1_655  S
H534       O2405   0.990       .  S
H535       O2404   0.990       .  S
H536       O2407   0.990       .  S
H539       O2407   0.990       .  S
C541        C542   1.535       .  S
C541        C547   1.540       .  S
C541        C545   1.552       .  S
C541        C833   1.546       .  S
C542        H549   1.082       .  S
C542        C543   1.358       .  D
C543        C544   1.550       .  S
C543        C782   1.491       .  S
C544        C548   1.542       .  S
C544        C546   1.540       .  S
C544        H550   1.109       .  S
C545        H551   1.085       .  S
C545        C546   1.370       .  D
C546        C798   1.489       .  S
C547        H552   1.085       .  S
C547        C548   1.369       .  D
C548        C814   1.501       .  S
C553        C554   1.555       .  S
C553        C559   1.537       .  S
C553        C557   1.529       .  S
C553        C926   1.542       .  S
C554        H561   1.080       .  S
C554        C555   1.380       .  D
C555        C556   1.546       .  S
C555        C817   1.511       .  S
C556        C560   1.543       .  S
C556        C558   1.535       .  S
C556        H562   1.102       .  S
C557        H563   1.087       .  S
C557        C558   1.358       .  D
C558        C766   1.481       .  S
C559        H564   1.087       .  S
C559        C560   1.356       .  D
C560        C750   1.474       .  S
C565        C566   1.543       .  S
C565        C571   1.546       .  S
C565        C569   1.546       .  S
C565        C849   1.546       .  S
C566        H573   1.076       .  S
C566        C567   1.359       .  D
C567        C568   1.534       .  S
C567        C753   1.478       .  S
C568        C572   1.542       .  S
C568        C570   1.543       .  S
C568        H574   1.111       .  S
C569        H575   1.083       .  S
C569        C570   1.373       .  D
C570        C734   1.504       .  S
C571        H576   1.086       .  S
C571        C572   1.361       .  D
C572        C718   1.487       .  S
C577        C578   1.563       .  S
C577        C583   1.544       .  S
C577        C581   1.544       .  S
C577        C878   1.560       .  S
C578        H585   1.083       .  S
C578        C579   1.366       .  D
C579        C580   1.523       .  S
C579        C721   1.491       .  S
C580        C584   1.531       .  S
C580        C582   1.538       .  S
C580        H586   1.109       .  S
C581        H587   1.070       .  S
C581        C582   1.367       .  D
C582        C702   1.492       .  S
C583        H588   1.086       .  S
C583        C584   1.364       .  D
C584        C785   1.483       .  S
C589        C590   1.546       .  S
C589        C595   1.546       .  S
C589        C593   1.536       .  S
C589        C910   1.545       .  S
C590        H597   1.084       .  S
C590        C591   1.384       .  D
C591        C592   1.549       .  S
C591        C686   1.523       .  S
C592        C596   1.539       .  S
C592        C594   1.533       .  S
C592        H598   1.094       .  S
C593        H599   1.086       .  S
C593        C594   1.360       .  D
C594        C801   1.483       .  S
C595        H600   1.084       .  S
C595        C596   1.353       .  D
C596        C670   1.477       .  S
C601        C602   1.531       .  S
C601        C607   1.533       .  S
C601        C605   1.547       .  S
C601        C862   1.528       .  S
C602        H609   1.086       .  S
C602        C603   1.353       .  D
C603        C604   1.545       .  S
C603        C673   1.475       .  S
C604        C608   1.544       .  S
C604        C606   1.550       .  S
C604        H610   1.106       .  S
C605        H611   1.082       .  S
C605        C606   1.373       .  D
C606        C705   1.497       .  S
C607        H612   1.087       .  S
C607        C608   1.361       .  D
C608        C654   1.499       .  S
C613        C614   1.543       .  S
C613        C619   1.552       .  S
C613        C617   1.540       .  S
C613        C945   1.551       .  S
C614        H621   1.085       .  S
C614        C615   1.366       .  D
C615        C616   1.542       .  S
C615        C657   1.492       .  S
C616        C620   1.541       .  S
C616        C618   1.551       .  S
C616        H622   1.106       .  S
C617        H623   1.086       .  S
C617        C618   1.371       .  D
C618        C737   1.508       .  S
C619        H624   1.083       .  S
C619        C620   1.360       .  D
C620        C638   1.492       .  S
C625        C626   1.545       .  S
C625        C631   1.545       .  S
C625        C629   1.559       .  S
C625        C897   1.555       .  S
C626        H633   1.086       .  S
C626        C627   1.365       .  D
C627        C628   1.532       .  S
C627        C641   1.487       .  S
C628        C632   1.541       .  S
C628        C630   1.527       .  S
C628        H634   1.109       .  S
C629        H635   1.074       .  S
C629        C630   1.361       .  D
C630        C769   1.482       .  S
C631        H636   1.080       .  S
C631        C632   1.370       .  D
C632        C689   1.505       .  S
C637        C638   1.403       .  A
C637        C642   1.406       .  A
C637        H644   1.082       .  S
C638        C639   1.417       .  A
C639        C646   1.512       .  S
C639        C640   1.408       .  A
C640        C641   1.401       .  A
C640        H645   1.081       .  S
C641        C642   1.414       .  A
C642        C643   1.512       .  S
C643        F647   1.385       .  S
C643        F648   1.382       .  S
C643        F649   1.381       .  S
C646        F650   1.379       .  S
C646        F651   1.379       .  S
C646        F652   1.384       .  S
C653        C654   1.407       .  A
C653        C658   1.408       .  A
C653        H660   1.084       .  S
C654        C655   1.418       .  A
C655        C662   1.515       .  S
C655        C656   1.408       .  A
C656        C657   1.403       .  A
C656        H661   1.084       .  S
C657        C658   1.425       .  A
C658        C659   1.523       .  S
C659        F663   1.384       .  S
C659        F664   1.376       .  S
C659        F665   1.383       .  S
C662        F666   1.379       .  S
C662        F667   1.381       .  S
C662        F668   1.383       .  S
C669        C670   1.402       .  A
C669        C674   1.404       .  A
C669        H676   1.085       .  S
C670        C671   1.418       .  A
C671        C678   1.519       .  S
C671        C672   1.401       .  A
C672        C673   1.400       .  A
C672        H677   1.085       .  S
C673        C674   1.421       .  A
C674        C675   1.522       .  S
C675        F679   1.383       .  S
C675        F680   1.380       .  S
C675        F681   1.383       .  S
C678        F682   1.383       .  S
C678        F683   1.380       .  S
C678        F684   1.383       .  S
C685        C686   1.413       .  A
C685        C690   1.410       .  A
C685        H692   1.082       .  S
C686        C687   1.432       .  A
C687        C694   1.522       .  S
C687        C688   1.408       .  A
C688        C689   1.402       .  A
C688        H693   1.076       .  S
C689        C690   1.421       .  A
C690        C691   1.521       .  S
C691        F695   1.385       .  S
C691        F696   1.383       .  S
C691        F697   1.381       .  S
C694        F698   1.383       .  S
C694        F699   1.370       .  S
C694        F700   1.386       .  S
C701        C702   1.403       .  A
C701        C706   1.394       .  A
C701        H708   1.083       .  S
C702        C703   1.424       .  A
C703        C710   1.523       .  S
C703        C704   1.408       .  A
C704        C705   1.409       .  A
C704        H709   1.083       .  S
C705        C706   1.417       .  A
C706        C707   1.511       .  S
C707        F711   1.385       .  S
C707        F712   1.382       .  S
C707        F713   1.364       .  S
C710        F714   1.377       .  S
C710        F715   1.383       .  S
C710        F716   1.385       .  S
C717        C718   1.398       .  A
C717        C722   1.402       .  A
C717        H724   1.083       .  S
C718        C719   1.427       .  A
C719        C726   1.520       .  S
C719        C720   1.409       .  A
C720        C721   1.401       .  A
C720        H725   1.085       .  S
C721        C722   1.418       .  A
C722        C723   1.513       .  S
C723        F727   1.378       .  S
C723        F728   1.379       .  S
C723        F729   1.384       .  S
C726        F730   1.383       .  S
C726        F731   1.376       .  S
C726        F732   1.384       .  S
C733        C734   1.403       .  A
C733        C738   1.410       .  A
C733        H740   1.077       .  S
C734        C735   1.421       .  A
C735        C742   1.519       .  S
C735        C736   1.416       .  A
C736        C737   1.410       .  A
C736        H741   1.083       .  S
C737        C738   1.420       .  A
C738        C739   1.516       .  S
C739        F743   1.383       .  S
C739        F744   1.379       .  S
C739        F745   1.378       .  S
C742        F746   1.381       .  S
C742        F747   1.383       .  S
C742        F748   1.385       .  S
C749        C750   1.399       .  A
C749        C754   1.400       .  A
C749        H756   1.083       .  S
C750        C751   1.409       .  A
C751        C758   1.514       .  S
C751        C752   1.408       .  A
C752        C753   1.405       .  A
C752        H757   1.082       .  S
C753        C754   1.412       .  A
C754        C755   1.511       .  S
C755        F759   1.385       .  S
C755        F760   1.380       .  S
C755        F761   1.382       .  S
C758        F762   1.382       .  S
C758        F763   1.383       .  S
C758        F764   1.384       .  S
C765        C766   1.404       .  A
C765        C770   1.407       .  A
C765        H772   1.083       .  S
C766        C767   1.415       .  A
C767        C774   1.516       .  S
C767        C768   1.400       .  A
C768        C769   1.402       .  A
C768        H773   1.084       .  S
C769        C770   1.419       .  A
C770        C771   1.520       .  S
C771        F775   1.385       .  S
C771        F776   1.379       .  S
C771        F777   1.381       .  S
C774        F778   1.380       .  S
C774        F779   1.382       .  S
C774        F780   1.385       .  S
C781        C782   1.406       .  A
C781        C786   1.411       .  A
C781        H788   1.081       .  S
C782        C783   1.424       .  A
C783        C790   1.517       .  S
C783        C784   1.405       .  A
C784        C785   1.397       .  A
C784        H789   1.085       .  S
C785        C786   1.416       .  A
C786        C787   1.519       .  S
C787        F791   1.385       .  S
C787        F792   1.379       .  S
C787        F793   1.382       .  S
C790        F794   1.380       .  S
C790        F795   1.373       .  S
C790        F796   1.383       .  S
C797        C798   1.405       .  A
C797        C802   1.410       .  A
C797        H804   1.081       .  S
C798        C799   1.415       .  A
C799        C806   1.512       .  S
C799        C800   1.405       .  A
C800        C801   1.400       .  A
C800        H805   1.082       .  S
C801        C802   1.416       .  A
C802        C803   1.518       .  S
C803        F807   1.385       .  S
C803        F808   1.383       .  S
C803        F809   1.382       .  S
C806        F810   1.380       .  S
C806        F811   1.382       .  S
C806        F812   1.384       .  S
C813        C814   1.400       .  A
C813        C818   1.411       .  A
C813        H820   1.080       .  S
C814        C815   1.418       .  A
C815        C822   1.519       .  S
C815        C816   1.407       .  A
C816        C817   1.409       .  A
C816        H821   1.084       .  S
C817        C818   1.432       .  A
C818        C819   1.521       .  S
C819        F823   1.384       .  S
C819        F824   1.371       .  S
C819        F825   1.377       .  S
C822        F826   1.381       .  S
C822        F827   1.382       .  S
C822        F828   1.385       .  S
C829        C830   1.404       .  A
C829        C834   1.404       .  A
C829        H836   1.084       .  S
C830        C831   1.425       .  A
C831        C838   1.522       .  S
C831        C832   1.412       .  A
C832        C833   1.411       .  A
C832        H837   1.079       .  S
C833        C834   1.432       .  A
C834        C835   1.525       .  S
C835        F839   1.383       .  S
C835        F840   1.376       .  S
C835        F841   1.385       .  S
C838        F842   1.383       .  S
C838        F843   1.383       .  S
C838        F844   1.384       .  S
C845        C846   1.398       .  A
C845        C850   1.407       .  A
C845        H852   1.085       .  S
C846        C847   1.413       .  A
C847        C854   1.517       .  S
C847        C848   1.407       .  A
C848        C849   1.410       .  A
C848        H853   1.082       .  S
C849        C850   1.428       .  A
C850        C851   1.518       .  S
C851        F855   1.383       .  S
C851        F856   1.383       .  S
C851        F857   1.383       .  S
C854        F859   1.383       .  S
C854        F860   1.383       .  S
C861        C862   1.413       .  A
C861        C866   1.408       .  A
C861        H868   1.074       .  S
C862        C863   1.432       .  A
C863        C870   1.533       .  S
C863        C864   1.392       .  A
C864        C865   1.400       .  A
C864        H869   1.085       .  S
C865        C866   1.419       .  A
C866        C867   1.522       .  S
C870        F874   1.384       .  S
C870        F875   1.375       .  S
C870        F876   1.385       .  S
C877        C878   1.415       .  A
C877        C882   1.406       .  A
C877        H884   1.075       .  S
C878        C879   1.442       .  A
C879        C886   1.526       .  S
C879        C880   1.414       .  A
C880        C881   1.399       .  A
C880        H885   1.083       .  S
C881        C882   1.416       .  A
C882        C883   1.521       .  S
C883        F887   1.385       .  S
C883        F888   1.382       .  S
C883        F889   1.384       .  S
C886        F890   1.380       .  S
C886        F891   1.381       .  S
C886        F892   1.382       .  S
C893        C894   1.404       .  A
C893        C898   1.409       .  A
C893        H900   1.084       .  S
C894        C895   1.421       .  A
C895        C902   1.527       .  S
C895        C896   1.410       .  A
C896        C897   1.417       .  A
C896        H901   1.067       .  S
C897        C898   1.435       .  A
C898        C899   1.528       .  S
C899        F903   1.384       .  S
C899        F904   1.374       .  S
C899        F905   1.384       .  S
C902        F906   1.385       .  S
C902        F907   1.383       .  S
C902        F908   1.381       .  S
C909        C910   1.415       .  A
C909        C914   1.401       .  A
C909        H916   1.077       .  S
C910        C911   1.433       .  A
C911        C918   1.522       .  S
C911        C912   1.410       .  A
C912        C913   1.399       .  A
C912        H917   1.085       .  S
C913        C914   1.408       .  A
C914        C915   1.521       .  S
C915        F919   1.385       .  S
C915       F1876   1.382   1_545  S
C915        F921   1.382       .  S
C918        F922   1.376       .  S
C918        F923   1.383       .  S
C918        F924   1.385       .  S
F920       C1871   1.383       .  S
C925        C926   1.417       .  A
C925        C930   1.402       .  A
C925        H932   1.081       .  S
C926        C927   1.427       .  A
C927        C934   1.520       .  S
C927        C928   1.410       .  A
C928        C929   1.402       .  A
C928        H933   1.085       .  S
C929        C930   1.408       .  A
C930        C931   1.520       .  S
C931        F935   1.385       .  S
C931        F936   1.381       .  S
C931        F937   1.384       .  S
C934        F938   1.383       .  S
C934        F939   1.381       .  S
C934        F940   1.382       .  S
C941        C942   1.402       .  A
C941        C946   1.412       .  A
C941        H948   1.083       .  S
C942        C943   1.410       .  A
C943        C950   1.518       .  S
C943        C944   1.407       .  A
C944        C945   1.414       .  A
C944        H949   1.078       .  S
C945        C946   1.430       .  A
C946        C947   1.522       .  S
C947        F951   1.385       .  S
C947        F952   1.378       .  S
C947        F953   1.382       .  S
C950        F954   1.383       .  S
C950        F955   1.382       .  S
C950        F956   1.384       .  S
O957        C959   1.292       .  A
O957      Zr2881   2.456       .  S
O958        C959   1.282       .  A
O958       Zr995   2.416       .  S
C959       C1372   1.505       .  S
O960        C962   1.291       .  A
O960       Zr972   2.459       .  S
O961        C962   1.286       .  A
C962       C1324   1.480       .  S
O963        C965   1.293       .  A
O963      Zr2884   2.469       .  S
O964        C965   1.286       .  A
O964      Zr1473   2.426       .  S
C965       C1420   1.486       .  S
O966        C968   1.287       .  A
O966       Zr969   2.440       .  S
O967        C968   1.284       .  A
C968       C1407   1.470       .  S
Zr969      O2869   2.462   1_455  S
Zr969       O970   2.435       .  S
Zr969       O971   2.435       .  S
Zr969      O3365   2.368   1_455  S
Zr969      O1454   2.378       .  S
Zr969      O2913   2.368   1_455  S
O970       H2925   0.990       .  S
O971       H2924   0.990       .  S
O971       H1016   0.990       .  S
Zr972      O2875   2.466   1_455  S
Zr972      O2885   2.434       .  S
Zr972       O974   2.434       .  S
Zr972       O976   2.373       .  S
Zr972      O2887   2.379   1_455  S
Zr972      O2912   2.365   1_455  S
O973      Zr2884   2.434       .  S
O973       H2926   0.990       .  S
O973       H2929   0.990       .  S
O974       H2919   0.990       .  S
O975      Zr3359   2.366   1_554  S
O975      Zr2884   2.382       .  S
O975      Zr1473   2.377       .  S
O976      Zr1447   2.378   1_554  S
O976       H1003   0.966       .  S
O977        C979   1.288       .  A
O977      Zr2901   2.436       .  S
O978        C979   1.283       .  A
O978      Zr1474   2.421       .  S
C979       C1308   1.494       .  S
O980        C982   1.286       .  A
O980       Zr992   2.418       .  S
O981        C982   1.281       .  A
C982       C1343   1.489       .  S
O983        C985   1.285       .  A
O983      Zr2904   2.437       .  S
O984        C985   1.292       .  A
O984       Zr996   2.450   1_554  S
C985       C1359   1.500       .  S
O986        C988   1.289       .  A
O986       Zr989   2.451       .  S
O987        C988   1.286       .  A
C988       C1391   1.475       .  S
Zr989      O2889   2.447       .  S
Zr989       O990   2.436       .  S
Zr989       O991   2.434       .  S
Zr989      O2909   2.369       .  S
Zr989       O998   2.369       .  S
Zr989      O2911   2.374       .  S
O990       H2922   0.990       .  S
O990       H1015   0.990       .  S
O991       H2923   0.990       .  S
Zr992      O2895   2.431       .  S
Zr992      O2905   2.434       .  S
Zr992       O994   2.435       .  S
Zr992      O1476   2.368   1_554  S
Zr992      O3387   2.363   1_554  S
Zr992      O2914   2.367       .  S
O993      Zr2904   2.434       .  S
O993       H2921   0.990       .  S
O994       H2920   0.990       .  S
O994       H1018   0.990       .  S
Zr995      O1442   2.439       .  S
Zr995      O1453   2.379       .  S
Zr995      O1478   2.388       .  S
Zr995      O1001   2.382       .  S
Zr996      O1456   2.416       .  S
Zr996      O1475   2.381       .  S
Zr996      O1477   2.388       .  S
Zr996      O1002   2.380   1_556  S
O997      Zr2901   2.372       .  S
O997      Zr3382   2.363       .  S
O997      Zr1474   2.382       .  S
O997       H1005   0.966       .  S
O998      Zr1470   2.369       .  S
O999      Zr2901   2.371       .  S
O999      Zr1474   2.382       .  S
O1000     Zr2884   2.370       .  S
O1000     Zr1473   2.387       .  S
O1000      H1004   0.966       .  S
O1001     Zr2881   2.366       .  S
O1001      H1006   0.966       .  S
O1002     Zr2904   2.372       .  S
H1007      O2886   0.990       .  S
H1008      O2906   0.990   1_655  S
H1009      O2905   0.990       .  S
H1010      O2902   0.990   1_655  S
H1011      O2903   0.990       .  S
H1012      O2883   0.990       .  S
H1013      O2882   0.990       .  S
H1014      O2885   0.990       .  S
H1017      O2885   0.990   1_655  S
C1019      C1020   1.536       .  S
C1019      C1025   1.532       .  S
C1019      C1023   1.550       .  S
C1019      C1311   1.538       .  S
C1020      H1027   1.083       .  S
C1020      C1021   1.360       .  D
C1021      C1022   1.550       .  S
C1021      C1260   1.488       .  S
C1022      C1026   1.545       .  S
C1022      C1024   1.540       .  S
C1022      H1028   1.110       .  S
C1023      H1029   1.085       .  S
C1023      C1024   1.368       .  D
C1024      C1276   1.488       .  S
C1025      H1030   1.083       .  S
C1025      C1026   1.364       .  D
C1026      C1292   1.496       .  S
C1031      C1032   1.550       .  S
C1031      C1037   1.536       .  S
C1031      C1035   1.529       .  S
C1031      C1404   1.536       .  S
C1032      H1039   1.077       .  S
C1032      C1033   1.374       .  D
C1033      C1034   1.545       .  S
C1033      C1295   1.507       .  S
C1034      C1038   1.543       .  S
C1034      C1036   1.537       .  S
C1034      H1040   1.104       .  S
C1035      H1041   1.087       .  S
C1035      C1036   1.358       .  D
C1036      C1244   1.479       .  S
C1037      H1042   1.087       .  S
C1037      C1038   1.356       .  D
C1038      C1228   1.471       .  S
C1043      C1044   1.538       .  S
C1043      C1049   1.548       .  S
C1043      C1047   1.551       .  S
C1043      C1327   1.551       .  S
C1044      H1051   1.074       .  S
C1044      C1045   1.356       .  D
C1045      C1046   1.532       .  S
C1045      C1231   1.474       .  S
C1046      C1050   1.542       .  S
C1046      C1048   1.542       .  S
C1046      H1052   1.111       .  S
C1047      H1053   1.084       .  S
C1047      C1048   1.377       .  D
C1048      C1212   1.509       .  S
C1049      H1054   1.086       .  S
C1049      C1050   1.361       .  D
C1050      C1196   1.488       .  S
C1055      C1056   1.566       .  S
C1055      C1061   1.541       .  S
C1055      C1059   1.547       .  S
C1055      C1356   1.562       .  S
C1056      H1063   1.083       .  S
C1056      C1057   1.368       .  D
C1057      C1058   1.522       .  S
C1057      C1199   1.493       .  S
C1058      C1062   1.531       .  S
C1058      C1060   1.535       .  S
C1058      H1064   1.109       .  S
C1059      H1065   1.072       .  S
C1059      C1060   1.369       .  D
C1060      C1180   1.489       .  S
C1061      H1066   1.086       .  S
C1061      C1062   1.361       .  D
C1062      C1263   1.482       .  S
C1067      C1068   1.550       .  S
C1067      C1073   1.547       .  S
C1067      C1071   1.538       .  S
C1067      C1388   1.549       .  S
C1068      H1075   1.082       .  S
C1068      C1069   1.385       .  D
C1069      C1070   1.549       .  S
C1069      C1164   1.527       .  S
C1070      C1074   1.536       .  S
C1070      C1072   1.531       .  S
C1070      H1076   1.089       .  S
C1071      H1077   1.086       .  S
C1071      C1072   1.360       .  D
C1072      C1279   1.484       .  S
C1073      H1078   1.085       .  S
C1073      C1074   1.357       .  D
C1074      C1148   1.481       .  S
C1079      C1080   1.531       .  S
C1079      C1085   1.533       .  S
C1079      C1083   1.549       .  S
C1079      C1340   1.529       .  S
C1080      H1087   1.087       .  S
C1080      C1081   1.356       .  D
C1081      C1082   1.545       .  S
C1081      C1151   1.477       .  S
C1082      C1086   1.541       .  S
C1082      C1084   1.545       .  S
C1082      H1088   1.107       .  S
C1083      H1089   1.080       .  S
C1083      C1084   1.371       .  D
C1084      C1183   1.492       .  S
C1085      H1090   1.087       .  S
C1085      C1086   1.359       .  D
C1086      C1132   1.492       .  S
C1091      C1092   1.542       .  S
C1091      C1097   1.552       .  S
C1091      C1095   1.545       .  S
C1091      C1423   1.556       .  S
C1092      H1099   1.084       .  S
C1092      C1093   1.364       .  D
C1093      C1094   1.539       .  S
C1093      C1135   1.487       .  S
C1094      C1098   1.538       .  S
C1094      C1096   1.549       .  S
C1094      H1100   1.105       .  S
C1095      H1101   1.086       .  S
C1095      C1096   1.375       .  D
C1096      C1215   1.512       .  S
C1097      H1102   1.083       .  S
C1097      C1098   1.360       .  D
C1098      C1116   1.487       .  S
C1103      C1104   1.545       .  S
C1103      C1109   1.543       .  S
C1103      C1107   1.562       .  S
C1103      C1375   1.551       .  S
C1104      H1111   1.084       .  S
C1104      C1105   1.363       .  D
C1105      C1106   1.526       .  S
C1105      C1119   1.479       .  S
C1106      C1110   1.542       .  S
C1106      C1108   1.525       .  S
C1106      H1112   1.109       .  S
C1107      H1113   1.081       .  S
C1107      C1108   1.363       .  D
C1108      C1247   1.479       .  S
C1109      H1114   1.083       .  S
C1109      C1110   1.369       .  D
C1110      C1167   1.504       .  S
C1115      C1116   1.402       .  A
C1115      C1120   1.404       .  A
C1115      H1122   1.082       .  S
C1116      C1117   1.416       .  A
C1117      C1124   1.510       .  S
C1117      C1118   1.406       .  A
C1118      C1119   1.398       .  A
C1118      H1123   1.083       .  S
C1119      C1120   1.413       .  A
C1120      C1121   1.512       .  S
C1121      F1125   1.385       .  S
C1121      F1126   1.382       .  S
C1121      F1127   1.380       .  S
C1124      F1128   1.378       .  S
C1124      F1129   1.380       .  S
C1124      F1130   1.384       .  S
C1131      C1132   1.403       .  A
C1131      C1136   1.405       .  A
C1131      H1138   1.084       .  S
C1132      C1133   1.416       .  A
C1133      C1140   1.515       .  S
C1133      C1134   1.407       .  A
C1134      C1135   1.404       .  A
C1134      H1139   1.084       .  S
C1135      C1136   1.425       .  A
C1136      C1137   1.522       .  S
C1137      F1141   1.384       .  S
C1137      F1142   1.375       .  S
C1137      F1143   1.383       .  S
C1140      F1144   1.379       .  S
C1140      F1145   1.382       .  S
C1140      F1146   1.383       .  S
C1147      C1148   1.402       .  A
C1147      C1152   1.405       .  A
C1147      H1154   1.085       .  S
C1148      C1149   1.419       .  A
C1149      C1156   1.518       .  S
C1149      C1150   1.403       .  A
C1150      C1151   1.399       .  A
C1150      H1155   1.085       .  S
C1151      C1152   1.423       .  A
C1152      C1153   1.523       .  S
C1153      F1157   1.383       .  S
C1153      F1158   1.380       .  S
C1153      F1159   1.384       .  S
C1156      F1160   1.383       .  S
C1156      F1161   1.379       .  S
C1156      F1162   1.383       .  S
C1163      C1164   1.416       .  A
C1163      C1168   1.411       .  A
C1163      H1170   1.082       .  S
C1164      C1165   1.433       .  A
C1165      C1172   1.522       .  S
C1165      C1166   1.407       .  A
C1166      C1167   1.401       .  A
C1166      H1171   1.079       .  S
C1167      C1168   1.420       .  A
C1168      C1169   1.520       .  S
C1169      F1173   1.385       .  S
C1169      F1174   1.383       .  S
C1169      F1175   1.382       .  S
C1172      F1176   1.384       .  S
C1172      F1177   1.374       .  S
C1172      F1178   1.386       .  S
C1179      C1180   1.404       .  A
C1179      C1184   1.394       .  A
C1179      H1186   1.082       .  S
C1180      C1181   1.423       .  A
C1181      C1188   1.522       .  S
C1181      C1182   1.405       .  A
C1182      C1183   1.408       .  A
C1182      H1187   1.085       .  S
C1183      C1184   1.416       .  A
C1184      C1185   1.513       .  S
C1185      F1189   1.384       .  S
C1185      F1190   1.383       .  S
C1185      F1191   1.365       .  S
C1188      F1192   1.375       .  S
C1188      F1193   1.383       .  S
C1188      F1194   1.384       .  S
C1195      C1196   1.398       .  A
C1195      C1200   1.402       .  A
C1195      H1202   1.084       .  S
C1196      C1197   1.427       .  A
C1197      C1204   1.518       .  S
C1197      C1198   1.410       .  A
C1198      C1199   1.402       .  A
C1198      H1203   1.085       .  S
C1199      C1200   1.420       .  A
C1200      C1201   1.513       .  S
C1201      F1205   1.377       .  S
C1201      F1206   1.379       .  S
C1201      F1207   1.385       .  S
C1204      F1208   1.383       .  S
C1204      F1209   1.376       .  S
C1204      F1210   1.384       .  S
C1211      C1212   1.404       .  A
C1211      C1216   1.412       .  A
C1211      H1218   1.077       .  S
C1212      C1213   1.420       .  A
C1213      C1220   1.517       .  S
C1213      C1214   1.416       .  A
C1214      C1215   1.410       .  A
C1214      H1219   1.083       .  S
C1215      C1216   1.424       .  A
C1216      C1217   1.520       .  S
C1217      F1221   1.383       .  S
C1217      F1222   1.379       .  S
C1217      F1223   1.377       .  S
C1220      F1224   1.382       .  S
C1220      F1225   1.383       .  S
C1220      F1226   1.385       .  S
C1227      C1228   1.399       .  A
C1227      C1232   1.399       .  A
C1227      H1234   1.083       .  S
C1228      C1229   1.407       .  A
C1229      C1236   1.515       .  S
C1229      C1230   1.406       .  A
C1230      C1231   1.405       .  A
C1230      H1235   1.082       .  S
C1231      C1232   1.411       .  A
C1232      C1233   1.514       .  S
C1233      F1237   1.385       .  S
C1233      F1238   1.382       .  S
C1233      F1239   1.381       .  S
C1236      F1240   1.382       .  S
C1236      F1241   1.384       .  S
C1236      F1242   1.384       .  S
C1243      C1244   1.404       .  A
C1243      C1248   1.407       .  A
C1243      H1250   1.085       .  S
C1244      C1245   1.411       .  A
C1245      C1252   1.515       .  S
C1245      C1246   1.398       .  A
C1246      C1247   1.403       .  A
C1246      H1251   1.083       .  S
C1247      C1248   1.422       .  A
C1248      C1249   1.520       .  S
C1249      F1253   1.384       .  S
C1249      F1254   1.378       .  S
C1249      F1255   1.383       .  S
C1252      F1256   1.380       .  S
C1252      F1257   1.382       .  S
C1252      F1258   1.385       .  S
C1259      C1260   1.405       .  A
C1259      C1264   1.410       .  A
C1259      H1266   1.081       .  S
C1260      C1261   1.423       .  A
C1261      C1268   1.516       .  S
C1261      C1262   1.404       .  A
C1262      C1263   1.397       .  A
C1262      H1267   1.085       .  S
C1263      C1264   1.417       .  A
C1264      C1265   1.519       .  S
C1265      F1269   1.385       .  S
C1265      F1270   1.379       .  S
C1265      F1271   1.382       .  S
C1268      F1272   1.380       .  S
C1268      F1273   1.375       .  S
C1268      F1274   1.383       .  S
C1275      C1276   1.402       .  A
C1275      C1280   1.407       .  A
C1275      H1282   1.080       .  S
C1276      C1277   1.414       .  A
C1277      C1284   1.511       .  S
C1277      C1278   1.408       .  A
C1278      C1279   1.402       .  A
C1278      H1283   1.083       .  S
C1279      C1280   1.416       .  A
C1280      C1281   1.517       .  S
C1281      F1285   1.385       .  S
C1281      F1286   1.382       .  S
C1281      F1287   1.381       .  S
C1284      F1288   1.380       .  S
C1284      F1289   1.383       .  S
C1284      F1290   1.384       .  S
C1291      C1292   1.400       .  A
C1291      C1296   1.409       .  A
C1291      H1298   1.080       .  S
C1292      C1293   1.421       .  A
C1293      C1300   1.521       .  S
C1293      C1294   1.404       .  A
C1294      C1295   1.407       .  A
C1294      H1299   1.084       .  S
C1295      C1296   1.428       .  A
C1296      C1297   1.517       .  S
C1297      F1301   1.383       .  S
C1297      F1302   1.372       .  S
C1297      F1303   1.377       .  S
C1300      F1304   1.380       .  S
C1300      F1305   1.383       .  S
C1300      F1306   1.385       .  S
C1307      C1308   1.404       .  A
C1307      C1312   1.399       .  A
C1307      H1314   1.084       .  S
C1308      C1309   1.422       .  A
C1309      C1316   1.522       .  S
C1309      C1310   1.411       .  A
C1310      C1311   1.413       .  A
C1310      H1315   1.080       .  S
C1311      C1312   1.428       .  A
C1312      C1313   1.524       .  S
C1313      F1317   1.383       .  S
C1313      F1318   1.377       .  S
C1313      F1319   1.386       .  S
C1316      F1320   1.382       .  S
C1316      F1321   1.383       .  S
C1316      F1322   1.385       .  S
C1323      C1324   1.399       .  A
C1323      C1328   1.411       .  A
C1323      H1330   1.085       .  S
C1324      C1325   1.413       .  A
C1325      C1332   1.517       .  S
C1325      C1326   1.407       .  A
C1326      C1327   1.411       .  A
C1326      H1331   1.083       .  S
C1327      C1328   1.434       .  A
C1328      C1329   1.521       .  S
C1329      F1333   1.383       .  S
C1329      F1334   1.383       .  S
C1329      F1335   1.384       .  S
C1332      F1814   1.382       .  S
C1332      F1337   1.384       .  S
C1332      F1338   1.384       .  S
F1336      C1810   1.381       .  S
C1339      C1340   1.414       .  A
C1339      C1344   1.407       .  A
C1339      H1346   1.070       .  S
C1340      C1341   1.434       .  A
C1341      C1348   1.535       .  S
C1341      C1342   1.395       .  A
C1342      C1343   1.402       .  A
C1342      H1347   1.084       .  S
C1343      C1344   1.419       .  A
C1344      C1345   1.524       .  S
C1345      F1827   1.385       .  S
C1345      F1828   1.383       .  S
C1345      F1829   1.383       .  S
C1348      F1352   1.384       .  S
C1348      F1353   1.373       .  S
C1348      F1354   1.384       .  S
F1349      C1823   1.385       .  S
F1350      C1823   1.383       .  S
F1351      C1823   1.384       .  S
C1355      C1356   1.415       .  A
C1355      C1360   1.408       .  A
C1355      H1362   1.075       .  S
C1356      C1357   1.442       .  A
C1357      C1364   1.525       .  S
C1357      C1358   1.416       .  A
C1358      C1359   1.400       .  A
C1358      H1363   1.083       .  S
C1359      C1360   1.419       .  A
C1360      C1361   1.522       .  S
C1361      F1365   1.385       .  S
C1361      F1366   1.383       .  S
C1361      F1367   1.383       .  S
C1364      F1368   1.380       .  S
C1364      F1369   1.381       .  S
C1364      F1370   1.381       .  S
C1371      C1372   1.407       .  A
C1371      C1376   1.410       .  A
C1371      H1378   1.084       .  S
C1372      C1373   1.425       .  A
C1373      C1380   1.525       .  S
C1373      C1374   1.407       .  A
C1374      C1375   1.411       .  A
C1374      H1379   1.071       .  S
C1375      C1376   1.434       .  A
C1376      C1377   1.527       .  S
C1377      F1381   1.382       .  S
C1377      F1382   1.376       .  S
C1377      F1383   1.385       .  S
C1380      F1384   1.385       .  S
C1380      F1385   1.384       .  S
C1380      F1386   1.379       .  S
C1387      C1388   1.418       .  A
C1387      C1392   1.407       .  A
C1387      H1394   1.079       .  S
C1388      C1389   1.432       .  A
C1389      C1396   1.520       .  S
C1389      C1390   1.410       .  A
C1390      C1391   1.398       .  A
C1390      H1395   1.085       .  S
C1391      C1392   1.409       .  A
C1392      C1393   1.520       .  S
C1393      F1397   1.385       .  S
C1393      F1399   1.383       .  S
C1396      F1400   1.377       .  S
C1396      F1401   1.382       .  S
C1396      F1402   1.385       .  S
C1403      C1404   1.414       .  A
C1403      C1408   1.400       .  A
C1403      H1410   1.082       .  S
C1404      C1405   1.426       .  A
C1405      C1412   1.520       .  S
C1405      C1406   1.407       .  A
C1406      C1407   1.401       .  A
C1406      H1411   1.085       .  S
C1407      C1408   1.411       .  A
C1408      C1409   1.521       .  S
C1409      F1413   1.385       .  S
C1409      F1414   1.381       .  S
C1409      F1415   1.384       .  S
C1412      F1416   1.382       .  S
C1412      F1417   1.383       .  S
C1412      F1418   1.382       .  S
C1419      C1420   1.401       .  A
C1419      C1424   1.413       .  A
C1419      H1426   1.085       .  S
C1420      C1421   1.411       .  A
C1421      C1428   1.519       .  S
C1421      C1422   1.409       .  A
C1422      C1423   1.416       .  A
C1422      H1427   1.077       .  S
C1423      C1424   1.433       .  A
C1424      C1425   1.521       .  S
C1425      F1429   1.385       .  S
C1425      F1430   1.379       .  S
C1425      F1431   1.383       .  S
C1428      F1432   1.383       .  S
C1428      F1433   1.382       .  S
C1428      F1434   1.385       .  S
O1435      C1437   1.293       .  A
O1435     Zr3359   2.463       .  S
O1436      C1437   1.282       .  A
O1436     Zr1473   2.418   1_556  S
C1437      C1850   1.508       .  S
O1438      C1440   1.293       .  A
O1438     Zr1450   2.473       .  S
O1439      C1440   1.286       .  A
C1440      C1802   1.484       .  S
O1441      C1443   1.289       .  A
O1441     Zr3362   2.452       .  S
O1442      C1443   1.289       .  A
C1443      C1898   1.484       .  S
O1444      C1446   1.285       .  A
O1444     Zr1447   2.427       .  S
O1445      C1446   1.287       .  A
C1446      C1885   1.466       .  S
Zr1447     O3347   2.455   1_455  S
Zr1447     O1448   2.434       .  S
Zr1447     O1449   2.436       .  S
Zr1447     O2887   2.365   1_456  S
Zr1447     O3391   2.370   1_455  S
O1448      H3403   0.990       .  S
O1449      H3402   0.990   1_455  S
O1449      H1494   0.990       .  S
Zr1450     O3353   2.468   1_455  S
Zr1450     O3363   2.435       .  S
Zr1450     O1452   2.434       .  S
Zr1450     O1454   2.372       .  S
Zr1450     O3365   2.383   1_455  S
Zr1450     O3390   2.373   1_455  S
O1451     Zr3362   2.436       .  S
O1451      H3404   0.990       .  S
O1451      H3407   0.990       .  S
O1452      H3397   0.990       .  S
O1453     Zr2881   2.369       .  S
O1453     Zr3362   2.376       .  S
O1454      H1481   0.966       .  S
O1455      C1457   1.288       .  A
O1455     Zr3379   2.432       .  S
O1456      C1457   1.282       .  A
C1457      C1786   1.489       .  S
O1458      C1460   1.285       .  A
O1458     Zr1470   2.419       .  S
O1459      C1460   1.282       .  A
C1460      C1821   1.495       .  S
O1461      C1463   1.286       .  A
O1461     Zr3382   2.443       .  S
O1462      C1463   1.288       .  A
O1462     Zr1474   2.430       .  S
C1463      C1837   1.491       .  S
O1464      C1466   1.290       .  A
O1464     Zr1467   2.457       .  S
O1465      C1466   1.285       .  A
C1466      C1869   1.476       .  S
Zr1467     O3367   2.454       .  S
Zr1467     O1468   2.436       .  S
Zr1467     O1469   2.436       .  S
Zr1467     O3387   2.370       .  S
Zr1467     O1476   2.371       .  S
Zr1467     O3389   2.375       .  S
O1468      H3400   0.990       .  S
O1468      H1493   0.990       .  S
O1469      H3401   0.990       .  S
Zr1470     O3373   2.442       .  S
Zr1470     O3383   2.433       .  S
Zr1470     O1472   2.435       .  S
Zr1470     O2909   2.360       .  S
Zr1470     O3392   2.368       .  S
O1471     Zr3382   2.434       .  S
O1471      H3399   0.990   1_455  S
O1472      H3398   0.990       .  S
O1472      H1496   0.990       .  S
Zr1473     O1479   2.379   1_554  S
Zr1474     O1480   2.382       .  S
O1475     Zr3379   2.371       .  S
O1475     Zr2904   2.364   1_556  S
O1475      H1483   0.966       .  S
O1477     Zr3379   2.372       .  S
O1478     Zr3362   2.373       .  S
O1478      H1482   0.966       .  S
O1479     Zr3359   2.366       .  S
O1479      H1484   0.966       .  S
O1480     Zr3382   2.369       .  S
H1485      O3364   0.990       .  S
H1486      O3384   0.990       .  S
H1487      O3383   0.990       .  S
H1488      O3380   0.990       .  S
H1489      O3381   0.990       .  S
H1490      O3361   0.990       .  S
H1491      O3360   0.990       .  S
H1492      O3363   0.990       .  S
H1495      O3363   0.990       .  S
C1497      C1498   1.536       .  S
C1497      C1503   1.535       .  S
C1497      C1501   1.547       .  S
C1497      C1789   1.532       .  S
C1498      H1505   1.083       .  S
C1498      C1499   1.359       .  D
C1499      C1500   1.549       .  S
C1499      C1738   1.486       .  S
C1500      C1504   1.542       .  S
C1500      C1502   1.540       .  S
C1500      H1506   1.109       .  S
C1501      H1507   1.085       .  S
C1501      C1502   1.365       .  D
C1502      C1754   1.485       .  S
C1503      H1508   1.085       .  S
C1503      C1504   1.365       .  D
C1504      C1770   1.494       .  S
C1509      C1510   1.550       .  S
C1509      C1515   1.541       .  S
C1509      C1513   1.530       .  S
C1509      C1882   1.543       .  S
C1510      H1517   1.079       .  S
C1510      C1511   1.377       .  D
C1511      C1512   1.544       .  S
C1511      C1773   1.505       .  S
C1512      C1516   1.544       .  S
C1512      C1514   1.537       .  S
C1512      H1518   1.103       .  S
C1513      H1519   1.087       .  S
C1513      C1514   1.357       .  D
C1514      C1722   1.482       .  S
C1515      H1520   1.086       .  S
C1515      C1516   1.357       .  D
C1516      C1706   1.480       .  S
C1521      C1522   1.545       .  S
C1521      C1527   1.545       .  S
C1521      C1525   1.547       .  S
C1521      C1805   1.553       .  S
C1522      H1529   1.077       .  S
C1522      C1523   1.360       .  D
C1523      C1524   1.537       .  S
C1523      C1709   1.487       .  S
C1524      C1528   1.548       .  S
C1524      C1526   1.546       .  S
C1524      H1530   1.111       .  S
C1525      H1531   1.084       .  S
C1525      C1526   1.375       .  D
C1526      C1690   1.506       .  S
C1527      H1532   1.086       .  S
C1527      C1528   1.360       .  D
C1528      C1674   1.493       .  S
C1533      C1534   1.567       .  S
C1533      C1539   1.539       .  S
C1533      C1537   1.546       .  S
C1533      C1834   1.559       .  S
C1534      H1541   1.083       .  S
C1534      C1535   1.368       .  D
C1535      C1536   1.523       .  S
C1535      C1677   1.497       .  S
C1536      C1540   1.532       .  S
C1536      C1538   1.536       .  S
C1536      H1542   1.109       .  S
C1537      H1543   1.073       .  S
C1537      C1538   1.368       .  D
C1538      C1658   1.489       .  S
C1539      H1544   1.086       .  S
C1539      C1540   1.360       .  D
C1540      C1741   1.482       .  S
C1545      C1546   1.550       .  S
C1545      C1551   1.541       .  S
C1545      C1549   1.536       .  S
C1545      C1866   1.545       .  S
C1546      H1553   1.081       .  S
C1546      C1547   1.385       .  D
C1547      C1548   1.547       .  S
C1547      C1642   1.527       .  S
C1548      C1552   1.537       .  S
C1548      C1550   1.531       .  S
C1548      H1554   1.091       .  S
C1549      H1555   1.085       .  S
C1549      C1550   1.361       .  D
C1550      C1757   1.483       .  S
C1551      H1556   1.086       .  S
C1551      C1552   1.355       .  D
C1552      C1626   1.473       .  S
C1557      C1558   1.531       .  S
C1557      C1563   1.539       .  S
C1557      C1561   1.547       .  S
C1557      C1818   1.534       .  S
C1558      H1565   1.087       .  S
C1558      C1559   1.356       .  D
C1559      C1560   1.545       .  S
C1559      C1629   1.477       .  S
C1560      C1564   1.543       .  S
C1560      C1562   1.546       .  S
C1560      H1566   1.106       .  S
C1561      H1567   1.079       .  S
C1561      C1562   1.368       .  D
C1562      C1661   1.493       .  S
C1563      H1568   1.087       .  S
C1563      C1564   1.363       .  D
C1564      C1610   1.497       .  S
C1569      C1570   1.544       .  S
C1569      C1575   1.555       .  S
C1569      C1573   1.540       .  S
C1569      C1901   1.554       .  S
C1570      H1577   1.084       .  S
C1570      C1571   1.366       .  D
C1571      C1572   1.542       .  S
C1571      C1613   1.494       .  S
C1572      C1576   1.539       .  S
C1572      C1574   1.546       .  S
C1572      H1578   1.106       .  S
C1573      H1579   1.086       .  S
C1573      C1574   1.368       .  D
C1574      C1693   1.502       .  S
C1575      H1580   1.083       .  S
C1575      C1576   1.363       .  D
C1576      C1594   1.493       .  S
C1581      C1582   1.537       .  S
C1581      C1587   1.546       .  S
C1581      C1585   1.560       .  S
C1581      C1853   1.549       .  S
C1582      H1589   1.086       .  S
C1582      C1583   1.359       .  D
C1583      C1584   1.531       .  S
C1583      C1597   1.480       .  S
C1584      C1588   1.544       .  S
C1584      C1586   1.526       .  S
C1584      H1590   1.109       .  S
C1585      H1591   1.083       .  S
C1585      C1586   1.365       .  D
C1586      C1725   1.483       .  S
C1587      H1592   1.081       .  S
C1587      C1588   1.372       .  D
C1588      C1645   1.507       .  S
C1593      C1594   1.407       .  A
C1593      C1598   1.408       .  A
C1593      H1600   1.082       .  S
C1594      C1595   1.419       .  A
C1595      C1602   1.511       .  S
C1595      C1596   1.403       .  A
C1596      C1597   1.396       .  A
C1596      H1601   1.081       .  S
C1597      C1598   1.413       .  A
C1598      C1599   1.515       .  S
C1599      F1603   1.384       .  S
C1599      F1604   1.382       .  S
C1599      F1605   1.380       .  S
C1602      F1606   1.375       .  S
C1602      F1607   1.379       .  S
C1602      F1608   1.384       .  S
C1609      C1610   1.404       .  A
C1609      C1614   1.409       .  A
C1609      H1616   1.084       .  S
C1610      C1611   1.416       .  A
C1611      C1618   1.515       .  S
C1611      C1612   1.409       .  A
C1612      C1613   1.405       .  A
C1612      H1617   1.084       .  S
C1613      C1614   1.427       .  A
C1614      C1615   1.523       .  S
C1615      F1619   1.384       .  S
C1615      F1620   1.376       .  S
C1615      F1621   1.383       .  S
C1618      F1622   1.379       .  S
C1618      F1623   1.382       .  S
C1618      F1624   1.383       .  S
C1625      C1626   1.399       .  A
C1625      C1630   1.402       .  A
C1625      H1632   1.085       .  S
C1626      C1627   1.416       .  A
C1627      C1634   1.518       .  S
C1627      C1628   1.401       .  A
C1628      C1629   1.400       .  A
C1628      H1633   1.085       .  S
C1629      C1630   1.423       .  A
C1630      C1631   1.521       .  S
C1631      F1635   1.383       .  S
C1631      F1636   1.380       .  S
C1631      F1637   1.384       .  S
C1634      F1638   1.383       .  S
C1634      F1639   1.380       .  S
C1634      F1640   1.382       .  S
C1641      C1642   1.413       .  A
C1641      C1646   1.409       .  A
C1641      H1648   1.082       .  S
C1642      C1643   1.435       .  A
C1643      C1650   1.523       .  S
C1643      C1644   1.410       .  A
C1644      C1645   1.403       .  A
C1644      H1649   1.076       .  S
C1645      C1646   1.420       .  A
C1646      C1647   1.520       .  S
C1647      F1651   1.385       .  S
C1647      F1652   1.383       .  S
C1647      F1653   1.382       .  S
C1650      F1654   1.383       .  S
C1650      F1655   1.373       .  S
C1650      F1656   1.386       .  S
C1657      C1658   1.404       .  A
C1657      C1662   1.394       .  A
C1657      H1664   1.082       .  S
C1658      C1659   1.424       .  A
C1659      C1666   1.524       .  S
C1659      C1660   1.405       .  A
C1660      C1661   1.408       .  A
C1660      H1665   1.084       .  S
C1661      C1662   1.414       .  A
C1662      C1663   1.511       .  S
C1663      F1667   1.384       .  S
C1663      F1668   1.382       .  S
C1663      F1669   1.366       .  S
C1666      F1670   1.376       .  S
C1666      F1671   1.383       .  S
C1666      F1672   1.385       .  S
C1673      C1674   1.397       .  A
C1673      C1678   1.401       .  A
C1673      H1680   1.083       .  S
C1674      C1675   1.431       .  A
C1675      C1682   1.521       .  S
C1675      C1676   1.412       .  A
C1676      C1677   1.401       .  A
C1676      H1681   1.085       .  S
C1677      C1678   1.420       .  A
C1678      C1679   1.512       .  S
C1679      F1683   1.375       .  S
C1679      F1684   1.380       .  S
C1679      F1685   1.384       .  S
C1682      F1686   1.383       .  S
C1682      F1687   1.376       .  S
C1682      F1688   1.384       .  S
C1689      C1690   1.402       .  A
C1689      C1694   1.409       .  A
C1689      H1696   1.073       .  S
C1690      C1691   1.421       .  A
C1691      C1698   1.518       .  S
C1691      C1692   1.418       .  A
C1692      C1693   1.408       .  A
C1692      H1697   1.083       .  S
C1693      C1694   1.417       .  A
C1694      C1695   1.516       .  S
C1695      F1699   1.380       .  S
C1695      F1700   1.381       .  S
C1695      F1701   1.378       .  S
C1698      F1702   1.380       .  S
C1698      F1703   1.381       .  S
C1698      F1704   1.385       .  S
C1705      C1706   1.400       .  A
C1705      C1710   1.402       .  A
C1705      H1712   1.083       .  S
C1706      C1707   1.408       .  A
C1707      C1714   1.515       .  S
C1707      C1708   1.411       .  A
C1708      C1709   1.408       .  A
C1708      H1713   1.080       .  S
C1709      C1710   1.413       .  A
C1710      C1711   1.512       .  S
C1711      F1715   1.384       .  S
C1711      F1716   1.380       .  S
C1711      F1717   1.382       .  S
C1714      F1718   1.383       .  S
C1714      F1719   1.383       .  S
C1714      F1720   1.383       .  S
C1721      C1722   1.402       .  A
C1721      C1726   1.406       .  A
C1721      H1728   1.085       .  S
C1722      C1723   1.414       .  A
C1723      C1730   1.515       .  S
C1723      C1724   1.402       .  A
C1724      C1725   1.404       .  A
C1724      H1729   1.083       .  S
C1725      C1726   1.422       .  A
C1726      C1727   1.518       .  S
C1727      F1731   1.384       .  S
C1727      F1732   1.378       .  S
C1727      F1733   1.383       .  S
C1730      F1734   1.380       .  S
C1730      F1735   1.382       .  S
C1730      F1736   1.385       .  S
C1737      C1738   1.404       .  A
C1737      C1742   1.409       .  A
C1737      H1744   1.081       .  S
C1738      C1739   1.422       .  A
C1739      C1746   1.516       .  S
C1739      C1740   1.404       .  A
C1740      C1741   1.397       .  A
C1740      H1745   1.085       .  S
C1741      C1742   1.417       .  A
C1742      C1743   1.519       .  S
C1743      F1747   1.385       .  S
C1743      F1748   1.379       .  S
C1743      F1749   1.382       .  S
C1746      F1750   1.379       .  S
C1746      F1751   1.375       .  S
C1746      F1752   1.383       .  S
C1753      C1754   1.403       .  A
C1753      C1758   1.407       .  A
C1753      H1760   1.080       .  S
C1754      C1755   1.411       .  A
C1755      C1762   1.512       .  S
C1755      C1756   1.406       .  A
C1756      C1757   1.403       .  A
C1756      H1761   1.082       .  S
C1757      C1758   1.416       .  A
C1758      C1759   1.518       .  S
C1759      F1763   1.385       .  S
C1759      F1764   1.383       .  S
C1759      F1765   1.381       .  S
C1762      F1766   1.380       .  S
C1762      F1767   1.383       .  S
C1762      F1768   1.383       .  S
C1769      C1770   1.399       .  A
C1769      C1774   1.409       .  A
C1769      H1776   1.080       .  S
C1770      C1771   1.419       .  A
C1771      C1778   1.519       .  S
C1771      C1772   1.404       .  A
C1772      C1773   1.407       .  A
C1772      H1777   1.084       .  S
C1773      C1774   1.429       .  A
C1774      C1775   1.519       .  S
C1775      F1779   1.383       .  S
C1775      F1780   1.372       .  S
C1775      F1781   1.376       .  S
C1778      F1782   1.379       .  S
C1778      F1783   1.382       .  S
C1778      F1784   1.384       .  S
C1785      C1786   1.404       .  A
C1785      C1790   1.396       .  A
C1785      H1792   1.084       .  S
C1786      C1787   1.423       .  A
C1787      C1794   1.522       .  S
C1787      C1788   1.409       .  A
C1788      C1789   1.411       .  A
C1788      H1793   1.080       .  S
C1789      C1790   1.424       .  A
C1790      C1791   1.523       .  S
C1791      F1795   1.383       .  S
C1791      F1796   1.376       .  S
C1791      F1797   1.386       .  S
C1794      F1798   1.382       .  S
C1794      F1799   1.383       .  S
C1794      F1800   1.385       .  S
C1801      C1802   1.400       .  A
C1801      C1806   1.412       .  A
C1801      H1808   1.085       .  S
C1802      C1803   1.413       .  A
C1803      C1810   1.516       .  S
C1803      C1804   1.409       .  A
C1804      C1805   1.412       .  A
C1804      H1809   1.082       .  S
C1805      C1806   1.431       .  A
C1806      C1807   1.519       .  S
C1807      F1811   1.380       .  S
C1807      F1812   1.383       .  S
C1807      F1813   1.383       .  S
C1810      F1815   1.383       .  S
C1810      F1816   1.383       .  S
C1817      C1818   1.416       .  A
C1817      C1822   1.408       .  A
C1817      H1824   1.069       .  S
C1818      C1819   1.432       .  A
C1819      C1826   1.534       .  S
C1819      C1820   1.396       .  A
C1820      C1821   1.405       .  A
C1820      H1825   1.084       .  S
C1821      C1822   1.419       .  A
C1822      C1823   1.525       .  S
C1826      F1830   1.385       .  S
C1826      F1831   1.373       .  S
C1826      F1832   1.384       .  S
C1833      C1834   1.416       .  A
C1833      C1838   1.405       .  A
C1833      H1840   1.075       .  S
C1834      C1835   1.442       .  A
C1835      C1842   1.526       .  S
C1835      C1836   1.414       .  A
C1836      C1837   1.399       .  A
C1836      H1841   1.083       .  S
C1837      C1838   1.414       .  A
C1838      C1839   1.521       .  S
C1839      F1843   1.385       .  S
C1839      F1844   1.382       .  S
C1839      F1845   1.384       .  S
C1842      F1846   1.379       .  S
C1842      F1847   1.382       .  S
C1842      F1848   1.384       .  S
C1849      C1850   1.406       .  A
C1849      C1854   1.409       .  A
C1849      H1856   1.084       .  S
C1850      C1851   1.427       .  A
C1851      C1858   1.527       .  S
C1851      C1852   1.410       .  A
C1852      C1853   1.413       .  A
C1852      H1857   1.073       .  S
C1853      C1854   1.434       .  A
C1854      C1855   1.529       .  S
C1855      F1859   1.385       .  S
C1855      F1860   1.376       .  S
C1855      F1861   1.383       .  S
C1858      F1862   1.385       .  S
C1858      F1863   1.381       .  S
C1858      F1864   1.383       .  S
C1865      C1866   1.416       .  A
C1865      C1870   1.407       .  A
C1865      H1872   1.081       .  S
C1866      C1867   1.428       .  A
C1867      C1874   1.520       .  S
C1867      C1868   1.409       .  A
C1868      C1869   1.400       .  A
C1868      H1873   1.085       .  S
C1869      C1870   1.410       .  A
C1870      C1871   1.519       .  S
C1871      F1875   1.385       .  S
C1871      F1877   1.383       .  S
C1874      F1878   1.380       .  S
C1874      F1879   1.382       .  S
C1874      F1880   1.385       .  S
C1881      C1882   1.418       .  A
C1881      C1886   1.399       .  A
C1881      H1888   1.079       .  S
C1882      C1883   1.433       .  A
C1883      C1890   1.523       .  S
C1883      C1884   1.410       .  A
C1884      C1885   1.397       .  A
C1884      H1889   1.084       .  S
C1885      C1886   1.405       .  A
C1886      C1887   1.520       .  S
C1887      F1891   1.385       .  S
C1887      F1892   1.380       .  S
C1887      F1893   1.384       .  S
C1890      F1894   1.385       .  S
C1890      F1895   1.380       .  S
C1890      F1896   1.381       .  S
C1897      C1898   1.399       .  A
C1897      C1902   1.412       .  A
C1897      H1904   1.083       .  S
C1898      C1899   1.410       .  A
C1899      C1906   1.520       .  S
C1899      C1900   1.408       .  A
C1900      C1901   1.416       .  A
C1900      H1905   1.076       .  S
C1901      C1902   1.435       .  A
C1902      C1903   1.524       .  S
C1903      F1907   1.385       .  S
C1903      F1908   1.377       .  S
C1903      F1909   1.383       .  S
C1906      F1910   1.383       .  S
C1906      F1911   1.382       .  S
C1906      F1912   1.384       .  S
O1913      C1915   1.290       .  A
O1914      C1915   1.284       .  A
O1914     Zr1951   2.426       .  S
C1915      C2328   1.508       .  S
O1916      C1918   1.291       .  A
O1916     Zr1928   2.462       .  S
O1917      C1918   1.283       .  A
O1917     Zr2908   2.410   1_554  S
C1918      C2280   1.475       .  S
O1919      C1921   1.292       .  A
O1920      C1921   1.284       .  A
O1920     Zr2429   2.411       .  S
C1921      C2376   1.475       .  S
O1922      C1924   1.284       .  A
O1922     Zr1925   2.427       .  S
O1923      C1924   1.286       .  A
O1923     Zr3386   2.426       .  S
C1924      C2363   1.468       .  S
Zr1925     O1926   2.435       .  S
Zr1925     O1927   2.441       .  S
Zr1925     O2410   2.378       .  S
Zr1925     O2911   2.377       .  S
O1927      H1972   0.990       .  S
Zr1928     O1930   2.434       .  S
Zr1928     O1932   2.368       .  S
Zr1928     O2914   2.374       .  S
O1931     Zr2429   2.383       .  S
O1932     Zr2403   2.374   1_554  S
O1932     Zr2908   2.387   1_554  S
O1932      H1959   0.966       .  S
O1933      C1935   1.290       .  A
O1934      C1935   1.284       .  A
O1934     Zr2430   2.426   1_545  S
C1935      C2264   1.497       .  S
O1936      C1938   1.287       .  A
O1936     Zr1948   2.427   1_655  S
O1937      C1938   1.282       .  A
O1937     Zr3385   2.410   1_545  S
C1938      C2299   1.487       .  S
O1939      C1941   1.286       .  A
O1940      C1941   1.290       .  A
O1940     Zr1952   2.440   1_544  S
C1941      C2315   1.492       .  S
O1942      C1944   1.287       .  A
O1942     Zr1945   2.440   1_655  S
O1943      C1944   1.287       .  A
O1943     Zr2907   2.434   1_545  S
C1944      C2347   1.475       .  S
Zr1945     O1946   2.437       .  S
Zr1945     O1947   2.434       .  S
Zr1945     O1954   2.370   1_455  S
Zr1945     O2913   2.373   1_445  S
O1946      H1971   0.990   1_455  S
Zr1948     O1950   2.436   1_455  S
Zr1948     O2432   2.366   1_454  S
Zr1948     O2912   2.377   1_445  S
O1950      H1974   0.990   1_655  S
Zr1951     O2398   2.420       .  S
Zr1951     O3371   2.409       .  S
Zr1951     O2899   2.432       .  S
Zr1951     O2409   2.378       .  S
Zr1951     O2910   2.379       .  S
Zr1951     O2434   2.388       .  S
Zr1951     O1957   2.376       .  S
Zr1952     O2873   2.405   1_556  S
Zr1952     O3357   2.420       .  S
Zr1952     O2412   2.422   1_565  S
Zr1952     O2888   2.391   1_556  S
Zr1952     O2431   2.376   1_565  S
Zr1952     O2433   2.383       .  S
Zr1952     O1958   2.378   1_556  S
O1953     Zr2430   2.379   1_545  S
O1953      H1961   0.966       .  S
O1954     Zr2426   2.370   1_655  S
O1954     Zr2907   2.380   1_545  S
O1955     Zr2881   2.381       .  S
O1955     Zr2430   2.387       .  S
O1956     Zr2904   2.369   1_655  S
O1956     Zr2429   2.388       .  S
O1956      H1960   0.966       .  S
O1957     Zr2901   2.369   1_655  S
O1957      H1962   0.966       .  S
O1958     Zr2884   2.374       .  S
C1975      C1976   1.537       .  S
C1975      C1981   1.535       .  S
C1975      C1979   1.548       .  S
C1975      C2267   1.539       .  S
C1976      H1983   1.083       .  S
C1976      C1977   1.360       .  D
C1977      C1978   1.551       .  S
C1977      C2216   1.491       .  S
C1978      C1982   1.542       .  S
C1978      C1980   1.541       .  S
C1978      H1984   1.109       .  S
C1979      H1985   1.085       .  S
C1979      C1980   1.367       .  D
C1980      C2232   1.488       .  S
C1981      H1986   1.086       .  S
C1981      C1982   1.366       .  D
C1982      C2248   1.493       .  S
C1987      C1988   1.547       .  S
C1987      C1993   1.539       .  S
C1987      C1991   1.530       .  S
C1987      C2360   1.536       .  S
C1988      H1995   1.079       .  S
C1988      C1989   1.375       .  D
C1989      C1990   1.545       .  S
C1989      C2251   1.504       .  S
C1990      C1994   1.546       .  S
C1990      C1992   1.540       .  S
C1990      H1996   1.103       .  S
C1991      H1997   1.087       .  S
C1991      C1992   1.357       .  D
C1992      C2200   1.486       .  S
C1993      H1998   1.087       .  S
C1993      C1994   1.359       .  D
C1994      C2184   1.478       .  S
C1999      C2000   1.539       .  S
C1999      C2005   1.545       .  S
C1999      C2003   1.546       .  S
C1999      C2283   1.547       .  S
C2000      H2007   1.077       .  S
C2000      C2001   1.356       .  D
C2001      C2002   1.538       .  S
C2001      C2187   1.480       .  S
C2002      C2006   1.547       .  S
C2002      C2004   1.543       .  S
C2002      H2008   1.111       .  S
C2003      H2009   1.083       .  S
C2003      C2004   1.374       .  D
C2004      C2168   1.505       .  S
C2005      H2010   1.086       .  S
C2005      C2006   1.364       .  D
C2006      C2152   1.492       .  S
C2011      C2012   1.566       .  S
C2011      C2017   1.542       .  S
C2011      C2015   1.544       .  S
C2011      C2312   1.558       .  S
C2012      H2019   1.083       .  S
C2012      C2013   1.367       .  D
C2013      C2014   1.521       .  S
C2013      C2155   1.493       .  S
C2014      C2018   1.533       .  S
C2014      C2016   1.536       .  S
C2014      H2020   1.110       .  S
C2015      H2021   1.074       .  S
C2015      C2016   1.367       .  D
C2016      C2136   1.485       .  S
C2017      H2022   1.085       .  S
C2017      C2018   1.363       .  D
C2018      C2219   1.486       .  S
C2023      C2024   1.549       .  S
C2023      C2029   1.543       .  S
C2023      C2027   1.541       .  S
C2023      C2344   1.549       .  S
C2024      H2031   1.081       .  S
C2024      C2025   1.384       .  D
C2025      C2026   1.547       .  S
C2025      C2120   1.525       .  S
C2026      C2030   1.533       .  S
C2026      C2028   1.529       .  S
C2026      H2032   1.090       .  S
C2027      H2033   1.085       .  S
C2027      C2028   1.363       .  D
C2028      C2235   1.486       .  S
C2029      H2034   1.085       .  S
C2029      C2030   1.354       .  D
C2030      C2104   1.470       .  S
C2035      C2036   1.527       .  S
C2035      C2041   1.531       .  S
C2035      C2039   1.547       .  S
C2035      C2296   1.527       .  S
C2036      H2043   1.087       .  S
C2036      C2037   1.353       .  D
C2037      C2038   1.543       .  S
C2037      C2107   1.470       .  S
C2038      C2042   1.541       .  S
C2038      C2040   1.546       .  S
C2038      H2044   1.104       .  S
C2039      H2045   1.081       .  S
C2039      C2040   1.374       .  D
C2040      C2139   1.494       .  S
C2041      H2046   1.087       .  S
C2041      C2042   1.361       .  D
C2042      C2088   1.495       .  S
C2047      C2048   1.541       .  S
C2047      C2053   1.552       .  S
C2047      C2051   1.538       .  S
C2047      C2379   1.548       .  S
C2048      H2055   1.083       .  S
C2048      C2049   1.365       .  D
C2049      C2050   1.541       .  S
C2049      C2091   1.488       .  S
C2050      C2054   1.539       .  S
C2050      C2052   1.547       .  S
C2050      H2056   1.105       .  S
C2051      H2057   1.086       .  S
C2051      C2052   1.370       .  D
C2052      C2171   1.503       .  S
C2053      H2058   1.084       .  S
C2053      C2054   1.361       .  D
C2054      C2072   1.492       .  S
C2059      C2060   1.542       .  S
C2059      C2065   1.544       .  S
C2059      C2063   1.564       .  S
C2059      C2331   1.554       .  S
C2060      H2067   1.085       .  S
C2060      C2061   1.362       .  D
C2061      C2062   1.530       .  S
C2061      C2075   1.485       .  S
C2062      C2066   1.547       .  S
C2062      C2064   1.526       .  S
C2062      H2068   1.109       .  S
C2063      H2069   1.079       .  S
C2063      C2064   1.362       .  D
C2064      C2203   1.485       .  S
C2065      H2070   1.082       .  S
C2065      C2066   1.371       .  D
C2066      C2123   1.509       .  S
C2071      C2072   1.405       .  A
C2071      C2076   1.408       .  A
C2071      H2078   1.083       .  S
C2072      C2073   1.418       .  A
C2073      C2080   1.512       .  S
C2073      C2074   1.406       .  A
C2074      C2075   1.399       .  A
C2074      H2079   1.082       .  S
C2075      C2076   1.415       .  A
C2076      C2077   1.515       .  S
C2077      F2081   1.385       .  S
C2077      F2082   1.382       .  S
C2077      F2083   1.379       .  S
C2080      F2084   1.378       .  S
C2080      F2085   1.379       .  S
C2080      F2086   1.383       .  S
C2087      C2088   1.405       .  A
C2087      C2092   1.404       .  A
C2087      H2094   1.083       .  S
C2088      C2089   1.418       .  A
C2089      C2096   1.518       .  S
C2089      C2090   1.408       .  A
C2090      C2091   1.405       .  A
C2090      H2095   1.083       .  S
C2091      C2092   1.424       .  A
C2092      C2093   1.524       .  S
C2093      F2097   1.384       .  S
C2093      F2098   1.375       .  S
C2093      F2099   1.383       .  S
C2096      F2100   1.378       .  S
C2096      F2101   1.382       .  S
C2096      F2102   1.383       .  S
C2103      C2104   1.399       .  A
C2103      C2108   1.401       .  A
C2103      H2110   1.085       .  S
C2104      C2105   1.416       .  A
C2105      C2112   1.518       .  S
C2105      C2106   1.400       .  A
C2106      C2107   1.399       .  A
C2106      H2111   1.086       .  S
C2107      C2108   1.422       .  A
C2108      C2109   1.523       .  S
C2109      F2113   1.383       .  S
C2109      F2114   1.380       .  S
C2109      F2115   1.383       .  S
C2112      F2116   1.383       .  S
C2112      F2117   1.380       .  S
C2112      F2118   1.381       .  S
C2119      C2120   1.413       .  A
C2119      C2124   1.409       .  A
C2119      H2126   1.082       .  S
C2120      C2121   1.432       .  A
C2121      C2128   1.522       .  S
C2121      C2122   1.409       .  A
C2122      C2123   1.404       .  A
C2122      H2127   1.077       .  S
C2123      C2124   1.423       .  A
C2124      C2125   1.520       .  S
C2125      F2129   1.385       .  S
C2125      F2130   1.382       .  S
C2125      F2131   1.382       .  S
C2128      F2132   1.384       .  S
C2128      F2133   1.374       .  S
C2128      F2134   1.386       .  S
C2135      C2136   1.401       .  A
C2135      C2140   1.394       .  A
C2135      H2142   1.083       .  S
C2136      C2137   1.422       .  A
C2137      C2144   1.522       .  S
C2137      C2138   1.404       .  A
C2138      C2139   1.410       .  A
C2138      H2143   1.084       .  S
C2139      C2140   1.419       .  A
C2140      C2141   1.512       .  S
C2141      F2145   1.384       .  S
C2141      F2146   1.384       .  S
C2141      F2147   1.363       .  S
C2144      F2148   1.376       .  S
C2144      F2149   1.383       .  S
C2144      F2150   1.385       .  S
C2151      C2152   1.401       .  A
C2151      C2156   1.406       .  A
C2151      H2158   1.083       .  S
C2152      C2153   1.428       .  A
C2153      C2160   1.519       .  S
C2153      C2154   1.409       .  A
C2154      C2155   1.399       .  A
C2154      H2159   1.085       .  S
C2155      C2156   1.419       .  A
C2156      C2157   1.514       .  S
C2157      F2161   1.379       .  S
C2157      F2162   1.379       .  S
C2157      F2163   1.385       .  S
C2160      F2164   1.383       .  S
C2160      F2165   1.376       .  S
C2160      F2166   1.384       .  S
C2167      C2168   1.405       .  A
C2167      C2172   1.412       .  A
C2167      H2174   1.076       .  S
C2168      C2169   1.421       .  A
C2169      C2176   1.519       .  S
C2169      C2170   1.414       .  A
C2170      C2171   1.407       .  A
C2170      H2175   1.083       .  S
C2171      C2172   1.419       .  A
C2172      C2173   1.519       .  S
C2173      F2177   1.383       .  S
C2173      F2178   1.381       .  S
C2173      F2179   1.379       .  S
C2176      F2180   1.381       .  S
C2176      F2181   1.382       .  S
C2176      F2182   1.385       .  S
C2183      C2184   1.401       .  A
C2183      C2188   1.404       .  A
C2183      H2190   1.083       .  S
C2184      C2185   1.407       .  A
C2185      C2192   1.514       .  S
C2185      C2186   1.407       .  A
C2186      C2187   1.406       .  A
C2186      H2191   1.082       .  S
C2187      C2188   1.412       .  A
C2188      C2189   1.514       .  S
C2189      F2193   1.385       .  S
C2189      F2194   1.381       .  S
C2189      F2195   1.382       .  S
C2192      F2196   1.382       .  S
C2192      F2197   1.384       .  S
C2192      F2198   1.384       .  S
C2199      C2200   1.403       .  A
C2199      C2204   1.409       .  A
C2199      H2206   1.085       .  S
C2200      C2201   1.414       .  A
C2201      C2208   1.512       .  S
C2201      C2202   1.399       .  A
C2202      C2203   1.401       .  A
C2202      H2207   1.083       .  S
C2203      C2204   1.424       .  A
C2204      C2205   1.520       .  S
C2205      F2209   1.384       .  S
C2205      F2210   1.377       .  S
C2205      F2211   1.383       .  S
C2208      F2212   1.378       .  S
C2208      F2213   1.382       .  S
C2208      F2214   1.385       .  S
C2215      C2216   1.404       .  A
C2215      C2220   1.411       .  A
C2215      H2222   1.082       .  S
C2216      C2217   1.424       .  A
C2217      C2224   1.516       .  S
C2217      C2218   1.406       .  A
C2218      C2219   1.398       .  A
C2218      H2223   1.085       .  S
C2219      C2220   1.417       .  A
C2220      C2221   1.518       .  S
C2221      F2225   1.384       .  S
C2221      F2226   1.379       .  S
C2221      F2227   1.382       .  S
C2224      F2228   1.381       .  S
C2224      F2229   1.375       .  S
C2224      F2230   1.383       .  S
C2231      C2232   1.404       .  A
C2231      C2236   1.408       .  A
C2231      H2238   1.080       .  S
C2232      C2233   1.412       .  A
C2233      C2240   1.513       .  S
C2233      C2234   1.409       .  A
C2234      C2235   1.404       .  A
C2234      H2239   1.082       .  S
C2235      C2236   1.415       .  A
C2236      C2237   1.517       .  S
C2237      F2241   1.385       .  S
C2237      F2242   1.383       .  S
C2237      F2243   1.382       .  S
C2240      F2244   1.380       .  S
C2240      F2245   1.383       .  S
C2240      F2246   1.383       .  S
C2247      C2248   1.401       .  A
C2247      C2252   1.410       .  A
C2247      H2254   1.080       .  S
C2248      C2249   1.417       .  A
C2249      C2256   1.519       .  S
C2249      C2250   1.400       .  A
C2250      C2251   1.407       .  A
C2250      H2255   1.084       .  S
C2251      C2252   1.429       .  A
C2252      C2253   1.518       .  S
C2253      F2257   1.384       .  S
C2253      F2258   1.373       .  S
C2253      F2259   1.375       .  S
C2256      F2260   1.379       .  S
C2256      F2261   1.383       .  S
C2256      F2262   1.384       .  S
C2263      C2264   1.406       .  A
C2263      C2268   1.400       .  A
C2263      H2270   1.084       .  S
C2264      C2265   1.424       .  A
C2265      C2272   1.522       .  S
C2265      C2266   1.412       .  A
C2266      C2267   1.412       .  A
C2266      H2271   1.080       .  S
C2267      C2268   1.426       .  A
C2268      C2269   1.524       .  S
C2269      F2273   1.382       .  S
C2269      F2274   1.378       .  S
C2269      F2275   1.385       .  S
C2272      F2276   1.381       .  S
C2272      F2277   1.383       .  S
C2272      F2278   1.385       .  S
C2279      C2280   1.397       .  A
C2279      C2284   1.407       .  A
C2279      H2286   1.085       .  S
C2280      C2281   1.413       .  A
C2281      C2288   1.519       .  S
C2281      C2282   1.408       .  A
C2282      C2283   1.412       .  A
C2282      H2287   1.082       .  S
C2283      C2284   1.431       .  A
C2284      C2285   1.520       .  S
C2285      F2289   1.382       .  S
C2285      F2290   1.382       .  S
C2285      F2291   1.384       .  S
C2288      F2770   1.382       .  S
C2288      F2293   1.383       .  S
C2288      F2294   1.384       .  S
F2292      C2766   1.382       .  S
C2295      C2296   1.411       .  A
C2295      C2300   1.406       .  A
C2295      H2302   1.073       .  S
C2296      C2297   1.434       .  A
C2297      C2304   1.534       .  S
C2297      C2298   1.396       .  A
C2298      C2299   1.402       .  A
C2298      H2303   1.085       .  S
C2299      C2300   1.418       .  A
C2300      C2301   1.522       .  S
C2301      F2783   1.385       .  S
C2301      F2784   1.383       .  S
C2301      F2785   1.382       .  S
C2304      F2308   1.384       .  S
C2304      F2309   1.374       .  S
C2304      F2310   1.384       .  S
F2305      C2779   1.385       .  S
F2306      C2779   1.383       .  S
F2307      C2779   1.382       .  S
C2311      C2312   1.414       .  A
C2311      C2316   1.404       .  A
C2311      H2318   1.075       .  S
C2312      C2313   1.443       .  A
C2313      C2320   1.526       .  S
C2313      C2314   1.415       .  A
C2314      C2315   1.399       .  A
C2314      H2319   1.083       .  S
C2315      C2316   1.415       .  A
C2316      C2317   1.520       .  S
C2317      F2321   1.385       .  S
C2317      F2322   1.382       .  S
C2317      F2323   1.384       .  S
C2320      F2324   1.378       .  S
C2320      F2325   1.382       .  S
C2320      F2326   1.383       .  S
C2327      C2328   1.408       .  A
C2327      C2332   1.412       .  A
C2327      H2334   1.084       .  S
C2328      C2329   1.423       .  A
C2329      C2336   1.528       .  S
C2329      C2330   1.408       .  A
C2330      C2331   1.415       .  A
C2330      H2335   1.066       .  S
C2331      C2332   1.436       .  A
C2332      C2333   1.530       .  S
C2333      F2337   1.384       .  S
C2333      F2338   1.374       .  S
C2333      F2339   1.383       .  S
C2336      F2340   1.385       .  S
C2336      F2341   1.382       .  S
C2336      F2342   1.383       .  S
C2343      C2344   1.417       .  A
C2343      C2348   1.406       .  A
C2343      H2350   1.079       .  S
C2344      C2345   1.432       .  A
C2345      C2352   1.521       .  S
C2345      C2346   1.410       .  A
C2346      C2347   1.399       .  A
C2346      H2351   1.084       .  S
C2347      C2348   1.408       .  A
C2348      C2349   1.520       .  S
C2349      F2353   1.385       .  S
C2349      F3310   1.383   1_545  S
C2349      F2355   1.383       .  S
C2352      F2356   1.379       .  S
C2352      F2357   1.383       .  S
C2352      F2358   1.385       .  S
F2354      C3305   1.382       .  S
C2359      C2360   1.413       .  A
C2359      C2364   1.400       .  A
C2359      H2366   1.082       .  S
C2360      C2361   1.428       .  A
C2361      C2368   1.520       .  S
C2361      C2362   1.406       .  A
C2362      C2363   1.399       .  A
C2362      H2367   1.085       .  S
C2363      C2364   1.409       .  A
C2364      C2365   1.519       .  S
C2365      F2369   1.385       .  S
C2365      F2370   1.380       .  S
C2365      F2371   1.383       .  S
C2368      F2372   1.385       .  S
C2368      F2373   1.381       .  S
C2368      F2374   1.383       .  S
C2375      C2376   1.399       .  A
C2375      C2380   1.409       .  A
C2375      H2382   1.085       .  S
C2376      C2377   1.409       .  A
C2377      C2384   1.519       .  S
C2377      C2378   1.406       .  A
C2378      C2379   1.415       .  A
C2378      H2383   1.079       .  S
C2379      C2380   1.432       .  A
C2380      C2381   1.521       .  S
C2381      F2385   1.384       .  S
C2381      F2386   1.379       .  S
C2381      F2387   1.384       .  S
C2384      F2388   1.383       .  S
C2384      F2389   1.382       .  S
C2384      F2390   1.384       .  S
O2391      C2393   1.292       .  A
O2392      C2393   1.282       .  A
O2392     Zr2429   2.416   1_556  S
C2393      C2806   1.507       .  S
O2394      C2396   1.293       .  A
O2394     Zr2406   2.467       .  S
O2395      C2396   1.285       .  A
O2395     Zr3386   2.417       .  S
C2396      C2758   1.481       .  S
O2397      C2399   1.292       .  A
O2398      C2399   1.285       .  A
C2399      C2854   1.479       .  S
O2400      C2402   1.285       .  A
O2400     Zr2403   2.430       .  S
O2401      C2402   1.286       .  A
O2401     Zr2908   2.423       .  S
C2402      C2841   1.471       .  S
Zr2403     O2404   2.435       .  S
Zr2403     O2405   2.435       .  S
Zr2403     O3389   2.385       .  S
O2405      H2450   0.990       .  S
Zr2406     O2408   2.433       .  S
Zr2406     O2410   2.374       .  S
Zr2406     O3392   2.377       .  S
O2410     Zr3386   2.391       .  S
O2410      H2437   0.967       .  S
O2411      C2413   1.289       .  A
O2412      C2413   1.283       .  A
C2413      C2742   1.495       .  S
O2414      C2416   1.288       .  A
O2414     Zr2426   2.432   1_655  S
O2415      C2416   1.279       .  A
O2415     Zr2907   2.401   1_545  S
C2416      C2777   1.490       .  S
O2417      C2419   1.288       .  A
O2418      C2419   1.289       .  A
O2418     Zr2430   2.435   1_545  S
C2419      C2793   1.492       .  S
O2420      C2422   1.289       .  A
O2420     Zr2423   2.451   1_655  S
O2421      C2422   1.285       .  A
O2421     Zr3385   2.419   1_546  S
C2422      C2825   1.472       .  S
Zr2423     O2424   2.437       .  S
Zr2423     O2425   2.434       .  S
Zr2423     O2432   2.371   1_455  S
Zr2423     O3391   2.371   1_445  S
O2424      H2449   0.990       .  S
Zr2426     O2428   2.436       .  S
Zr2426     O3390   2.368   1_445  S
O2428      H2452   0.990       .  S
Zr2429     O2893   2.413       .  S
Zr2429     O3377   2.432   1_554  S
Zr2429     O3388   2.377   1_554  S
Zr2429     O2435   2.377   1_554  S
Zr2430     O3351   2.418       .  S
Zr2430     O2879   2.419       .  S
Zr2430     O3366   2.391       .  S
Zr2430     O2436   2.377       .  S
O2431      H2439   0.966       .  S
O2432     Zr3385   2.384   1_546  S
O2433     Zr3359   2.385       .  S
O2434     Zr3382   2.370   1_655  S
O2434      H2438   0.966       .  S
O2435     Zr3379   2.366   1_655  S
O2435      H2440   0.966       .  S
O2436     Zr3362   2.377       .  S
C2453      C2454   1.537       .  S
C2453      C2459   1.536       .  S
C2453      C2457   1.552       .  S
C2453      C2745   1.542       .  S
C2454      H2461   1.083       .  S
C2454      C2455   1.359       .  D
C2455      C2456   1.551       .  S
C2455      C2694   1.493       .  S
C2456      C2460   1.538       .  S
C2456      C2458   1.541       .  S
C2456      H2462   1.109       .  S
C2457      H2463   1.084       .  S
C2457      C2458   1.370       .  D
C2458      C2710   1.490       .  S
C2459      H2464   1.086       .  S
C2459      C2460   1.366       .  D
C2460      C2726   1.491       .  S
C2465      C2466   1.548       .  S
C2465      C2471   1.538       .  S
C2465      C2469   1.530       .  S
C2465      C2838   1.537       .  S
C2466      H2473   1.078       .  S
C2466      C2467   1.374       .  D
C2467      C2468   1.543       .  S
C2467      C2729   1.499       .  S
C2468      C2472   1.543       .  S
C2468      C2470   1.538       .  S
C2468      H2474   1.104       .  S
C2469      H2475   1.087       .  S
C2469      C2470   1.358       .  D
C2470      C2678   1.484       .  S
C2471      H2476   1.087       .  S
C2471      C2472   1.358       .  D
C2472      C2662   1.476       .  S
C2477      C2478   1.542       .  S
C2477      C2483   1.547       .  S
C2477      C2481   1.547       .  S
C2477      C2761   1.550       .  S
C2478      H2485   1.076       .  S
C2478      C2479   1.358       .  D
C2479      C2480   1.537       .  S
C2479      C2665   1.483       .  S
C2480      C2484   1.546       .  S
C2480      C2482   1.544       .  S
C2480      H2486   1.111       .  S
C2481      H2487   1.084       .  S
C2481      C2482   1.374       .  D
C2482      C2646   1.503       .  S
C2483      H2488   1.086       .  S
C2483      C2484   1.362       .  D
C2484      C2630   1.494       .  S
C2489      C2490   1.566       .  S
C2489      C2495   1.544       .  S
C2489      C2493   1.545       .  S
C2489      C2790   1.564       .  S
C2490      H2497   1.083       .  S
C2490      C2491   1.368       .  D
C2491      C2492   1.526       .  S
C2491      C2633   1.498       .  S
C2492      C2496   1.533       .  S
C2492      C2494   1.537       .  S
C2492      H2498   1.110       .  S
C2493      H2499   1.071       .  S
C2493      C2494   1.367       .  D
C2494      C2614   1.490       .  S
C2495      H2500   1.085       .  S
C2495      C2496   1.364       .  D
C2496      C2697   1.488       .  S
C2501      C2502   1.545       .  S
C2501      C2507   1.544       .  S
C2501      C2505   1.536       .  S
C2501      C2822   1.543       .  S
C2502      H2509   1.082       .  S
C2502      C2503   1.382       .  D
C2503      C2504   1.549       .  S
C2503      C2598   1.524       .  S
C2504      C2508   1.541       .  S
C2504      C2506   1.532       .  S
C2504      H2510   1.093       .  S
C2505      H2511   1.086       .  S
C2505      C2506   1.361       .  D
C2506      C2713   1.484       .  S
C2507      H2512   1.085       .  S
C2507      C2508   1.357       .  D
C2508      C2582   1.480       .  S
C2513      C2514   1.531       .  S
C2513      C2519   1.531       .  S
C2513      C2517   1.549       .  S
C2513      C2774   1.532       .  S
C2514      H2521   1.087       .  S
C2514      C2515   1.357       .  D
C2515      C2516   1.548       .  S
C2515      C2585   1.481       .  S
C2516      C2520   1.541       .  S
C2516      C2518   1.551       .  S
C2516      H2522   1.106       .  S
C2517      H2523   1.080       .  S
C2517      C2518   1.371       .  D
C2518      C2617   1.499       .  S
C2519      H2524   1.087       .  S
C2519      C2520   1.361       .  D
C2520      C2566   1.491       .  S
C2525      C2526   1.543       .  S
C2525      C2531   1.554       .  S
C2525      C2529   1.539       .  S
C2525      C2857   1.549       .  S
C2526      H2533   1.083       .  S
C2526      C2527   1.365       .  D
C2527      C2528   1.538       .  S
C2527      C2569   1.487       .  S
C2528      C2532   1.541       .  S
C2528      C2530   1.548       .  S
C2528      H2534   1.108       .  S
C2529      H2535   1.086       .  S
C2529      C2530   1.368       .  D
C2530      C2649   1.503       .  S
C2531      H2536   1.084       .  S
C2531      C2532   1.363       .  D
C2532      C2550   1.495       .  S
C2537      C2538   1.540       .  S
C2537      C2543   1.545       .  S
C2537      C2541   1.560       .  S
C2537      C2809   1.551       .  S
C2538      H2545   1.086       .  S
C2538      C2539   1.362       .  D
C2539      C2540   1.533       .  S
C2539      C2553   1.487       .  S
C2540      C2544   1.545       .  S
C2540      C2542   1.530       .  S
C2540      H2546   1.109       .  S
C2541      H2547   1.077       .  S
C2541      C2542   1.362       .  D
C2542      C2681   1.485       .  S
C2543      H2548   1.079       .  S
C2543      C2544   1.370       .  D
C2544      C2601   1.507       .  S
C2549      C2550   1.404       .  A
C2549      C2554   1.408       .  A
C2549      H2556   1.081       .  S
C2550      C2551   1.419       .  A
C2551      C2558   1.511       .  S
C2551      C2552   1.407       .  A
C2552      C2553   1.399       .  A
C2552      H2557   1.081       .  S
C2553      C2554   1.414       .  A
C2554      C2555   1.513       .  S
C2555      F2559   1.385       .  S
C2555      F2560   1.382       .  S
C2555      F2561   1.381       .  S
C2558      F2562   1.379       .  S
C2558      F2563   1.378       .  S
C2558      F2564   1.385       .  S
C2565      C2566   1.404       .  A
C2565      C2570   1.403       .  A
C2565      H2572   1.083       .  S
C2566      C2567   1.416       .  A
C2567      C2574   1.516       .  S
C2567      C2568   1.408       .  A
C2568      C2569   1.405       .  A
C2568      H2573   1.083       .  S
C2569      C2570   1.423       .  A
C2570      C2571   1.522       .  S
C2571      F2575   1.384       .  S
C2571      F2576   1.375       .  S
C2571      F2577   1.383       .  S
C2574      F2578   1.380       .  S
C2574      F2579   1.381       .  S
C2574      F2580   1.383       .  S
C2581      C2582   1.401       .  A
C2581      C2586   1.405       .  A
C2581      H2588   1.085       .  S
C2582      C2583   1.418       .  A
C2583      C2590   1.521       .  S
C2583      C2584   1.405       .  A
C2584      C2585   1.403       .  A
C2584      H2589   1.085       .  S
C2585      C2586   1.422       .  A
C2586      C2587   1.522       .  S
C2587      F2591   1.383       .  S
C2587      F2592   1.380       .  S
C2587      F2593   1.383       .  S
C2590      F2594   1.383       .  S
C2590      F2595   1.381       .  S
C2590      F2596   1.382       .  S
C2597      C2598   1.414       .  A
C2597      C2602   1.411       .  A
C2597      H2604   1.081       .  S
C2598      C2599   1.431       .  A
C2599      C2606   1.522       .  S
C2599      C2600   1.408       .  A
C2600      C2601   1.402       .  A
C2600      H2605   1.076       .  S
C2601      C2602   1.423       .  A
C2602      C2603   1.522       .  S
C2603      F2607   1.385       .  S
C2603      F2608   1.383       .  S
C2603      F2609   1.382       .  S
C2606      F2610   1.383       .  S
C2606      F2611   1.370       .  S
C2606      F2612   1.386       .  S
C2613      C2614   1.402       .  A
C2613      C2618   1.395       .  A
C2613      H2620   1.083       .  S
C2614      C2615   1.422       .  A
C2615      C2622   1.523       .  S
C2615      C2616   1.409       .  A
C2616      C2617   1.412       .  A
C2616      H2621   1.083       .  S
C2617      C2618   1.417       .  A
C2618      C2619   1.511       .  S
C2619      F2623   1.385       .  S
C2619      F2624   1.383       .  S
C2619      F2625   1.364       .  S
C2622      F2626   1.377       .  S
C2622      F2627   1.383       .  S
C2622      F2628   1.385       .  S
C2629      C2630   1.398       .  A
C2629      C2634   1.403       .  A
C2629      H2636   1.081       .  S
C2630      C2631   1.429       .  A
C2631      C2638   1.519       .  S
C2631      C2632   1.412       .  A
C2632      C2633   1.402       .  A
C2632      H2637   1.085       .  S
C2633      C2634   1.419       .  A
C2634      C2635   1.512       .  S
C2635      F2639   1.378       .  S
C2635      F2640   1.377       .  S
C2635      F2641   1.384       .  S
C2638      F2642   1.383       .  S
C2638      F2643   1.375       .  S
C2638      F2644   1.384       .  S
C2645      C2646   1.401       .  A
C2645      C2650   1.407       .  A
C2645      H2652   1.074       .  S
C2646      C2647   1.421       .  A
C2647      C2654   1.519       .  S
C2647      C2648   1.418       .  A
C2648      C2649   1.409       .  A
C2648      H2653   1.083       .  S
C2649      C2650   1.416       .  A
C2650      C2651   1.514       .  S
C2651      F2655   1.379       .  S
C2651      F2656   1.381       .  S
C2651      F2657   1.377       .  S
C2654      F2658   1.380       .  S
C2654      F2659   1.381       .  S
C2654      F2660   1.385       .  S
C2661      C2662   1.400       .  A
C2661      C2666   1.401       .  A
C2661      H2668   1.083       .  S
C2662      C2663   1.408       .  A
C2663      C2670   1.515       .  S
C2663      C2664   1.409       .  A
C2664      C2665   1.407       .  A
C2664      H2669   1.080       .  S
C2665      C2666   1.412       .  A
C2666      C2667   1.513       .  S
C2667      F2671   1.384       .  S
C2667      F2672   1.381       .  S
C2667      F2673   1.381       .  S
C2670      F2674   1.383       .  S
C2670      F2675   1.383       .  S
C2670      F2676   1.383       .  S
C2677      C2678   1.405       .  A
C2677      C2682   1.409       .  A
C2677      H2684   1.083       .  S
C2678      C2679   1.415       .  A
C2679      C2686   1.514       .  S
C2679      C2680   1.400       .  A
C2680      C2681   1.402       .  A
C2680      H2685   1.083       .  S
C2681      C2682   1.419       .  A
C2682      C2683   1.520       .  S
C2683      F2687   1.385       .  S
C2683      F2688   1.379       .  S
C2683      F2689   1.382       .  S
C2686      F2690   1.379       .  S
C2686      F2691   1.381       .  S
C2686      F2692   1.385       .  S
C2693      C2694   1.406       .  A
C2693      C2698   1.413       .  A
C2693      H2700   1.082       .  S
C2694      C2695   1.425       .  A
C2695      C2702   1.516       .  S
C2695      C2696   1.405       .  A
C2696      C2697   1.397       .  A
C2696      H2701   1.085       .  S
C2697      C2698   1.418       .  A
C2698      C2699   1.517       .  S
C2699      F2703   1.384       .  S
C2699      F2704   1.380       .  S
C2699      F2705   1.382       .  S
C2702      F2706   1.380       .  S
C2702      F2707   1.372       .  S
C2702      F2708   1.383       .  S
C2709      C2710   1.405       .  A
C2709      C2714   1.409       .  A
C2709      H2716   1.079       .  S
C2710      C2711   1.413       .  A
C2711      C2718   1.514       .  S
C2711      C2712   1.407       .  A
C2712      C2713   1.402       .  A
C2712      H2717   1.082       .  S
C2713      C2714   1.415       .  A
C2714      C2715   1.519       .  S
C2715      F2719   1.385       .  S
C2715      F2720   1.383       .  S
C2715      F2721   1.381       .  S
C2718      F2722   1.380       .  S
C2718      F2723   1.383       .  S
C2718      F2724   1.383       .  S
C2725      C2726   1.401       .  A
C2725      C2730   1.408       .  A
C2725      H2732   1.081       .  S
C2726      C2727   1.418       .  A
C2727      C2734   1.519       .  S
C2727      C2728   1.401       .  A
C2728      C2729   1.405       .  A
C2728      H2733   1.084       .  S
C2729      C2730   1.426       .  A
C2730      C2731   1.516       .  S
C2731      F2735   1.383       .  S
C2731      F2736   1.373       .  S
C2731      F2737   1.377       .  S
C2734      F2738   1.378       .  S
C2734      F2739   1.382       .  S
C2734      F2740   1.385       .  S
C2741      C2742   1.403       .  A
C2741      C2746   1.400       .  A
C2741      H2748   1.084       .  S
C2742      C2743   1.423       .  A
C2743      C2750   1.523       .  S
C2743      C2744   1.412       .  A
C2744      C2745   1.413       .  A
C2744      H2749   1.079       .  S
C2745      C2746   1.430       .  A
C2746      C2747   1.524       .  S
C2747      F2751   1.383       .  S
C2747      F2752   1.375       .  S
C2747      F2753   1.385       .  S
C2750      F2754   1.380       .  S
C2750      F2755   1.383       .  S
C2750      F2756   1.385       .  S
C2757      C2758   1.400       .  A
C2757      C2762   1.411       .  A
C2757      H2764   1.085       .  S
C2758      C2759   1.413       .  A
C2759      C2766   1.518       .  S
C2759      C2760   1.408       .  A
C2760      C2761   1.411       .  A
C2760      H2765   1.083       .  S
C2761      C2762   1.432       .  A
C2762      C2763   1.520       .  S
C2763      F2767   1.383       .  S
C2763      F2768   1.383       .  S
C2763      F2769   1.384       .  S
C2766      F2771   1.383       .  S
C2766      F2772   1.384       .  S
C2773      C2774   1.413       .  A
C2773      C2778   1.407       .  A
C2773      H2780   1.070       .  S
C2774      C2775   1.435       .  A
C2775      C2782   1.533       .  S
C2775      C2776   1.396       .  A
C2776      C2777   1.401       .  A
C2776      H2781   1.084       .  S
C2777      C2778   1.420       .  A
C2778      C2779   1.524       .  S
C2782      F2786   1.384       .  S
C2782      F2787   1.372       .  S
C2782      F2788   1.384       .  S
C2789      C2790   1.417       .  A
C2789      C2794   1.407       .  A
C2789      H2796   1.074       .  S
C2790      C2791   1.444       .  A
C2791      C2798   1.526       .  S
C2791      C2792   1.414       .  A
C2792      C2793   1.397       .  A
C2792      H2797   1.083       .  S
C2793      C2794   1.413       .  A
C2794      C2795   1.520       .  S
C2795      F2799   1.385       .  S
C2795      F2800   1.382       .  S
C2795      F2801   1.384       .  S
C2798      F2802   1.379       .  S
C2798      F2803   1.381       .  S
C2798      F2804   1.383       .  S
C2805      C2806   1.407       .  A
C2805      C2810   1.411       .  A
C2805      H2812   1.084       .  S
C2806      C2807   1.424       .  A
C2807      C2814   1.527       .  S
C2807      C2808   1.407       .  A
C2808      C2809   1.413       .  A
C2808      H2813   1.070       .  S
C2809      C2810   1.435       .  A
C2810      C2811   1.529       .  S
C2811      F2815   1.384       .  S
C2811      F2816   1.374       .  S
C2811      F2817   1.383       .  S
C2814      F2818   1.385       .  S
C2814      F2819   1.383       .  S
C2814      F2820   1.383       .  S
C2821      C2822   1.414       .  A
C2821      C2826   1.404       .  A
C2821      H2828   1.080       .  S
C2822      C2823   1.431       .  A
C2823      C2830   1.522       .  S
C2823      C2824   1.410       .  A
C2824      C2825   1.399       .  A
C2824      H2829   1.085       .  S
C2825      C2826   1.408       .  A
C2826      C2827   1.519       .  S
C2827      F2831   1.384       .  S
C2827      F3788   1.383   1_545  S
C2827      F2833   1.383       .  S
C2830      F2834   1.380       .  S
C2830      F2835   1.383       .  S
C2830      F2836   1.385       .  S
F2832      C3783   1.383       .  S
C2837      C2838   1.414       .  A
C2837      C2842   1.401       .  A
C2837      H2844   1.082       .  S
C2838      C2839   1.427       .  A
C2839      C2846   1.520       .  S
C2839      C2840   1.407       .  A
C2840      C2841   1.401       .  A
C2840      H2845   1.085       .  S
C2841      C2842   1.410       .  A
C2842      C2843   1.519       .  S
C2843      F2847   1.384       .  S
C2843      F2848   1.380       .  S
C2843      F2849   1.384       .  S
C2846      F2850   1.385       .  S
C2846      F2851   1.382       .  S
C2846      F2852   1.383       .  S
C2853      C2854   1.400       .  A
C2853      C2858   1.410       .  A
C2853      H2860   1.085       .  S
C2854      C2855   1.411       .  A
C2855      C2862   1.518       .  S
C2855      C2856   1.407       .  A
C2856      C2857   1.413       .  A
C2856      H2861   1.080       .  S
C2857      C2858   1.431       .  A
C2858      C2859   1.521       .  S
C2859      F2863   1.385       .  S
C2859      F2864   1.380       .  S
C2859      F2865   1.383       .  S
C2862      F2866   1.382       .  S
C2862      F2867   1.382       .  S
C2862      F2868   1.385       .  S
O2869      C2871   1.293       .  A
O2870      C2871   1.281       .  A
O2870     Zr2907   2.413       .  S
C2871      C3284   1.507       .  S
O2872      C2874   1.293       .  A
O2872     Zr2884   2.467       .  S
O2873      C2874   1.282       .  A
C2874      C3236   1.476       .  S
O2875      C2877   1.292       .  A
O2876      C2877   1.285       .  A
O2876     Zr3385   2.420       .  S
C2877      C3332   1.481       .  S
O2878      C2880   1.284       .  A
O2878     Zr2881   2.425       .  S
O2879      C2880   1.285       .  A
C2880      C3319   1.461       .  S
Zr2881     O2882   2.435       .  S
Zr2881     O2883   2.435       .  S
Zr2881     O3366   2.382       .  S
O2883      H2928   0.990       .  S
Zr2884     O2886   2.433       .  S
Zr2884     O2888   2.371       .  S
O2887     Zr3385   2.376       .  S
O2888     Zr3359   2.381   1_554  S
O2888      H2915   0.966       .  S
O2889      C2891   1.291       .  A
O2890      C2891   1.282       .  A
O2890     Zr3386   2.417       .  S
C2891      C3220   1.495       .  S
O2892      C2894   1.287       .  A
O2892     Zr2904   2.426   1_655  S
O2893      C2894   1.281       .  A
C2894      C3255   1.495       .  S
O2895      C2897   1.283       .  A
O2896      C2897   1.290       .  A
O2896     Zr2908   2.441   1_554  S
C2897      C3271   1.498       .  S
O2898      C2900   1.288       .  A
O2898     Zr2901   2.447   1_655  S
O2899      C2900   1.287       .  A
C2900      C3303   1.478       .  S
Zr2901     O2902   2.438       .  S
Zr2901     O2903   2.434       .  S
Zr2901     O2910   2.368   1_455  S
O2902      H2927   0.990       .  S
Zr2904     O2906   2.436       .  S
Zr2904     O3388   2.367   1_454  S
O2906      H2930   0.990       .  S
Zr2907     O3354   2.426       .  S
Zr2907     O3365   2.382       .  S
Zr2907     O3390   2.388       .  S
Zr2907     O2913   2.379       .  S
Zr2908     O3368   2.409       .  S
Zr2908     O3387   2.381       .  S
Zr2908     O3389   2.389       .  S
Zr2908     O2914   2.377   1_556  S
O2909     Zr3386   2.379       .  S
O2909      H2917   0.966       .  S
O2910     Zr3382   2.371   1_655  S
O2911     Zr3386   2.386       .  S
O2912     Zr3385   2.389       .  S
O2912      H2916   0.966   1_565  S
O2913      H2918   0.966       .  S
C2931      C2932   1.536       .  S
C2931      C2937   1.533       .  S
C2931      C2935   1.552       .  S
C2931      C3223   1.541       .  S
C2932      H2939   1.081       .  S
C2932      C2933   1.358       .  D
C2933      C2934   1.552       .  S
C2933      C3172   1.494       .  S
C2934      C2938   1.545       .  S
C2934      C2936   1.542       .  S
C2934      H2940   1.109       .  S
C2935      H2941   1.085       .  S
C2935      C2936   1.371       .  D
C2936      C3188   1.492       .  S
C2937      H2942   1.084       .  S
C2937      C2938   1.364       .  D
C2938      C3204   1.496       .  S
C2943      C2944   1.551       .  S
C2943      C2949   1.537       .  S
C2943      C2947   1.523       .  S
C2943      C3316   1.532       .  S
C2944      H2951   1.081       .  S
C2944      C2945   1.379       .  D
C2945      C2946   1.544       .  S
C2945      C3207   1.503       .  S
C2946      C2950   1.544       .  S
C2946      C2948   1.540       .  S
C2946      H2952   1.104       .  S
C2947      H2953   1.087       .  S
C2947      C2948   1.353       .  D
C2948      C3156   1.481       .  S
C2949      H2954   1.087       .  S
C2949      C2950   1.356       .  D
C2950      C3140   1.475       .  S
C2955      C2956   1.541       .  S
C2955      C2961   1.545       .  S
C2955      C2959   1.547       .  S
C2955      C3239   1.546       .  S
C2956      H2963   1.076       .  S
C2956      C2957   1.357       .  D
C2957      C2958   1.534       .  S
C2957      C3143   1.476       .  S
C2958      C2962   1.544       .  S
C2958      C2960   1.545       .  S
C2958      H2964   1.111       .  S
C2959      H2965   1.082       .  S
C2959      C2960   1.374       .  D
C2960      C3124   1.511       .  S
C2961      H2966   1.086       .  S
C2961      C2962   1.361       .  D
C2962      C3108   1.486       .  S
C2967      C2968   1.557       .  S
C2967      C2973   1.542       .  S
C2967      C2971   1.548       .  S
C2967      C3268   1.555       .  S
C2968      H2975   1.085       .  S
C2968      C2969   1.363       .  D
C2969      C2970   1.528       .  S
C2969      C3111   1.491       .  S
C2970      C2974   1.532       .  S
C2970      C2972   1.540       .  S
C2970      H2976   1.110       .  S
C2971      H2977   1.068       .  S
C2971      C2972   1.372       .  D
C2972      C3092   1.499       .  S
C2973      H2978   1.086       .  S
C2973      C2974   1.362       .  D
C2974      C3175   1.484       .  S
C2979      C2980   1.546       .  S
C2979      C2985   1.545       .  S
C2979      C2983   1.539       .  S
C2979      C3300   1.550       .  S
C2980      H2987   1.080       .  S
C2980      C2981   1.383       .  D
C2981      C2982   1.544       .  S
C2981      C3076   1.520       .  S
C2982      C2986   1.534       .  S
C2982      C2984   1.531       .  S
C2982      H2988   1.090       .  S
C2983      H2989   1.086       .  S
C2983      C2984   1.362       .  D
C2984      C3191   1.488       .  S
C2985      H2990   1.085       .  S
C2985      C2986   1.359       .  D
C2986      C3060   1.475       .  S
C2991      C2992   1.530       .  S
C2991      C2997   1.536       .  S
C2991      C2995   1.551       .  S
C2991      C3252   1.536       .  S
C2992      H2999   1.087       .  S
C2992      C2993   1.357       .  D
C2993      C2994   1.542       .  S
C2993      C3063   1.474       .  S
C2994      C2998   1.536       .  S
C2994      C2996   1.545       .  S
C2994      H3000   1.108       .  S
C2995      H3001   1.079       .  S
C2995      C2996   1.372       .  D
C2996      C3095   1.499       .  S
C2997      H3002   1.087       .  S
C2997      C2998   1.361       .  D
C2998      C3044   1.486       .  S
C3003      C3004   1.542       .  S
C3003      C3009   1.549       .  S
C3003      C3007   1.545       .  S
C3003      C3335   1.551       .  S
C3004      H3011   1.084       .  S
C3004      C3005   1.363       .  D
C3005      C3006   1.540       .  S
C3005      C3047   1.486       .  S
C3006      C3010   1.545       .  S
C3006      C3008   1.551       .  S
C3006      H3012   1.105       .  S
C3007      H3013   1.086       .  S
C3007      C3008   1.374       .  D
C3008      C3127   1.515       .  S
C3009      H3014   1.084       .  S
C3009      C3010   1.360       .  D
C3010      C3028   1.493       .  S
C3015      C3016   1.543       .  S
C3015      C3021   1.544       .  S
C3015      C3019   1.566       .  S
C3015      C3287   1.555       .  S
C3016      H3023   1.086       .  S
C3016      C3017   1.362       .  D
C3017      C3018   1.528       .  S
C3017      C3031   1.480       .  S
C3018      C3022   1.539       .  S
C3018      C3020   1.519       .  S
C3018      H3024   1.109       .  S
C3019      H3025   1.079       .  S
C3019      C3020   1.367       .  D
C3020      C3159   1.482       .  S
C3021      H3026   1.080       .  S
C3021      C3022   1.369       .  D
C3022      C3079   1.502       .  S
C3027      C3028   1.406       .  A
C3027      C3032   1.407       .  A
C3027      H3034   1.082       .  S
C3028      C3029   1.417       .  A
C3029      C3036   1.509       .  S
C3029      C3030   1.404       .  A
C3030      C3031   1.397       .  A
C3030      H3035   1.083       .  S
C3031      C3032   1.413       .  A
C3032      C3033   1.514       .  S
C3033      F3037   1.385       .  S
C3033      F3038   1.382       .  S
C3033      F3039   1.381       .  S
C3036      F3040   1.379       .  S
C3036      F3041   1.379       .  S
C3036      F3042   1.384       .  S
C3043      C3044   1.402       .  A
C3043      C3048   1.403       .  A
C3043      H3050   1.083       .  S
C3044      C3045   1.414       .  A
C3045      C3052   1.516       .  S
C3045      C3046   1.407       .  A
C3046      C3047   1.404       .  A
C3046      H3051   1.084       .  S
C3047      C3048   1.424       .  A
C3048      C3049   1.520       .  S
C3049      F3053   1.384       .  S
C3049      F3054   1.376       .  S
C3049      F3055   1.383       .  S
C3052      F3056   1.380       .  S
C3052      F3057   1.382       .  S
C3052      F3058   1.383       .  S
C3059      C3060   1.399       .  A
C3059      C3064   1.401       .  A
C3059      H3066   1.085       .  S
C3060      C3061   1.419       .  A
C3061      C3068   1.519       .  S
C3061      C3062   1.403       .  A
C3062      C3063   1.401       .  A
C3062      H3067   1.085       .  S
C3063      C3064   1.420       .  A
C3064      C3065   1.521       .  S
C3065      F3069   1.382       .  S
C3065      F3070   1.380       .  S
C3065      F3071   1.384       .  S
C3068      F3072   1.382       .  S
C3068      F3073   1.379       .  S
C3068      F3074   1.383       .  S
C3075      C3076   1.411       .  A
C3075      C3080   1.408       .  A
C3075      H3082   1.082       .  S
C3076      C3077   1.428       .  A
C3077      C3084   1.523       .  S
C3077      C3078   1.406       .  A
C3078      C3079   1.405       .  A
C3078      H3083   1.080       .  S
C3079      C3080   1.423       .  A
C3080      C3081   1.521       .  S
C3081      F3085   1.385       .  S
C3081      F3086   1.383       .  S
C3081      F3087   1.381       .  S
C3084      F3088   1.384       .  S
C3084      F3089   1.376       .  S
C3084      F3090   1.386       .  S
C3091      C3092   1.405       .  A
C3091      C3096   1.398       .  A
C3091      H3098   1.082       .  S
C3092      C3093   1.422       .  A
C3093      C3100   1.521       .  S
C3093      C3094   1.409       .  A
C3094      C3095   1.411       .  A
C3094      H3099   1.082       .  S
C3095      C3096   1.418       .  A
C3096      C3097   1.513       .  S
C3097      F3101   1.383       .  S
C3097      F3102   1.383       .  S
C3097      F3103   1.366       .  S
C3100      F3104   1.378       .  S
C3100      F3105   1.382       .  S
C3100      F3106   1.385       .  S
C3107      C3108   1.397       .  A
C3107      C3112   1.401       .  A
C3107      H3114   1.083       .  S
C3108      C3109   1.428       .  A
C3109      C3116   1.520       .  S
C3109      C3110   1.410       .  A
C3110      C3111   1.402       .  A
C3110      H3115   1.085       .  S
C3111      C3112   1.417       .  A
C3112      C3113   1.512       .  S
C3113      F3117   1.379       .  S
C3113      F3118   1.377       .  S
C3113      F3119   1.384       .  S
C3116      F3120   1.384       .  S
C3116      F3121   1.377       .  S
C3116      F3122   1.384       .  S
C3123      C3124   1.403       .  A
C3123      C3128   1.413       .  A
C3123      H3130   1.077       .  S
C3124      C3125   1.422       .  A
C3125      C3132   1.519       .  S
C3125      C3126   1.419       .  A
C3126      C3127   1.411       .  A
C3126      H3131   1.083       .  S
C3127      C3128   1.423       .  A
C3128      C3129   1.517       .  S
C3129      F3133   1.381       .  S
C3129      F3134   1.378       .  S
C3129      F3135   1.378       .  S
C3132      F3136   1.381       .  S
C3132      F3137   1.383       .  S
C3132      F3138   1.384       .  S
C3139      C3140   1.402       .  A
C3139      C3144   1.403       .  A
C3139      H3146   1.083       .  S
C3140      C3141   1.406       .  A
C3141      C3148   1.514       .  S
C3141      C3142   1.406       .  A
C3142      C3143   1.405       .  A
C3142      H3147   1.082       .  S
C3143      C3144   1.412       .  A
C3144      C3145   1.515       .  S
C3145      F3149   1.385       .  S
C3145      F3150   1.381       .  S
C3145      F3151   1.382       .  S
C3148      F3152   1.382       .  S
C3148      F3153   1.383       .  S
C3148      F3154   1.384       .  S
C3155      C3156   1.403       .  A
C3155      C3160   1.404       .  A
C3155      H3162   1.085       .  S
C3156      C3157   1.412       .  A
C3157      C3164   1.517       .  S
C3157      C3158   1.404       .  A
C3158      C3159   1.408       .  A
C3158      H3163   1.083       .  S
C3159      C3160   1.420       .  A
C3160      C3161   1.520       .  S
C3161      F3165   1.384       .  S
C3161      F3166   1.378       .  S
C3161      F3167   1.383       .  S
C3164      F3168   1.380       .  S
C3164      F3169   1.383       .  S
C3164      F3170   1.385       .  S
C3171      C3172   1.407       .  A
C3171      C3176   1.413       .  A
C3171      H3178   1.082       .  S
C3172      C3173   1.425       .  A
C3173      C3180   1.515       .  S
C3173      C3174   1.404       .  A
C3174      C3175   1.395       .  A
C3174      H3179   1.085       .  S
C3175      C3176   1.417       .  A
C3176      C3177   1.519       .  S
C3177      F3181   1.385       .  S
C3177      F3182   1.379       .  S
C3177      F3183   1.382       .  S
C3180      F3184   1.381       .  S
C3180      F3185   1.373       .  S
C3180      F3186   1.383       .  S
C3187      C3188   1.403       .  A
C3187      C3192   1.409       .  A
C3187      H3194   1.081       .  S
C3188      C3189   1.415       .  A
C3189      C3196   1.512       .  S
C3189      C3190   1.410       .  A
C3190      C3191   1.403       .  A
C3190      H3195   1.083       .  S
C3191      C3192   1.416       .  A
C3192      C3193   1.517       .  S
C3193      F3197   1.384       .  S
C3193      F3198   1.382       .  S
C3193      F3199   1.381       .  S
C3196      F3200   1.380       .  S
C3196      F3201   1.383       .  S
C3196      F3202   1.384       .  S
C3203      C3204   1.399       .  A
C3203      C3208   1.407       .  A
C3203      H3210   1.080       .  S
C3204      C3205   1.421       .  A
C3205      C3212   1.519       .  S
C3205      C3206   1.403       .  A
C3206      C3207   1.405       .  A
C3206      H3211   1.084       .  S
C3207      C3208   1.430       .  A
C3208      C3209   1.519       .  S
C3209      F3213   1.384       .  S
C3209      F3214   1.371       .  S
C3209      F3215   1.377       .  S
C3212      F3216   1.381       .  S
C3212      F3217   1.383       .  S
C3212      F3218   1.385       .  S
C3219      C3220   1.402       .  A
C3219      C3224   1.400       .  A
C3219      H3226   1.084       .  S
C3220      C3221   1.424       .  A
C3221      C3228   1.523       .  S
C3221      C3222   1.412       .  A
C3222      C3223   1.412       .  A
C3222      H3227   1.080       .  S
C3223      C3224   1.431       .  A
C3224      C3225   1.525       .  S
C3225      F3229   1.382       .  S
C3225      F3230   1.376       .  S
C3225      F3231   1.386       .  S
C3228      F3232   1.381       .  S
C3228      F3233   1.383       .  S
C3228      F3234   1.385       .  S
C3235      C3236   1.399       .  A
C3235      C3240   1.408       .  A
C3235      H3242   1.085       .  S
C3236      C3237   1.414       .  A
C3237      C3244   1.519       .  S
C3237      C3238   1.408       .  A
C3238      C3239   1.412       .  A
C3238      H3243   1.083       .  S
C3239      C3240   1.429       .  A
C3240      C3241   1.520       .  S
C3241      F3245   1.382       .  S
C3241      F3246   1.383       .  S
C3241      F3247   1.383       .  S
C3244      F3726   1.382       .  S
C3244      F3249   1.383       .  S
C3244      F3250   1.384       .  S
F3248      C3722   1.382       .  S
C3251      C3252   1.414       .  A
C3251      C3256   1.408       .  A
C3251      H3258   1.069       .  S
C3252      C3253   1.434       .  A
C3253      C3260   1.533       .  S
C3253      C3254   1.397       .  A
C3254      C3255   1.403       .  A
C3254      H3259   1.084       .  S
C3255      C3256   1.420       .  A
C3256      C3257   1.524       .  S
C3257      F3739   1.385       .  S
C3257      F3740   1.383       .  S
C3257      F3741   1.383       .  S
C3260      F3264   1.384       .  S
C3260      F3265   1.372       .  S
C3260      F3266   1.384       .  S
F3261      C3735   1.385       .  S
F3262      C3735   1.383       .  S
F3263      C3735   1.383       .  S
C3267      C3268   1.415       .  A
C3267      C3272   1.407       .  A
C3267      H3274   1.078       .  S
C3268      C3269   1.437       .  A
C3269      C3276   1.524       .  S
C3269      C3270   1.412       .  A
C3270      C3271   1.402       .  A
C3270      H3275   1.083       .  S
C3271      C3272   1.421       .  A
C3272      C3273   1.524       .  S
C3273      F3277   1.385       .  S
C3273      F3278   1.383       .  S
C3273      F3279   1.383       .  S
C3276      F3280   1.380       .  S
C3276      F3281   1.382       .  S
C3276      F3282   1.384       .  S
C3283      C3284   1.404       .  A
C3283      C3288   1.409       .  A
C3283      H3290   1.084       .  S
C3284      C3285   1.425       .  A
C3285      C3292   1.526       .  S
C3285      C3286   1.411       .  A
C3286      C3287   1.415       .  A
C3286      H3291   1.068       .  S
C3287      C3288   1.438       .  A
C3288      C3289   1.529       .  S
C3289      F3293   1.384       .  S
C3289      F3294   1.374       .  S
C3289      F3295   1.384       .  S
C3292      F3296   1.385       .  S
C3292      F3297   1.383       .  S
C3292      F3298   1.382       .  S
C3299      C3300   1.416       .  A
C3299      C3304   1.408       .  A
C3299      H3306   1.080       .  S
C3300      C3301   1.433       .  A
C3301      C3308   1.521       .  S
C3301      C3302   1.411       .  A
C3302      C3303   1.399       .  A
C3302      H3307   1.085       .  S
C3303      C3304   1.409       .  A
C3304      C3305   1.519       .  S
C3305      F3309   1.384       .  S
C3305      F3311   1.382       .  S
C3308      F3312   1.379       .  S
C3308      F3313   1.383       .  S
C3308      F3314   1.385       .  S
C3315      C3316   1.416       .  A
C3315      C3320   1.399       .  A
C3315      H3322   1.082       .  S
C3316      C3317   1.425       .  A
C3317      C3324   1.519       .  S
C3317      C3318   1.404       .  A
C3318      C3319   1.400       .  A
C3318      H3323   1.085       .  S
C3319      C3320   1.406       .  A
C3320      C3321   1.521       .  S
C3321      F3325   1.385       .  S
C3321      F3326   1.381       .  S
C3321      F3327   1.384       .  S
C3324      F3328   1.384       .  S
C3324      F3329   1.381       .  S
C3324      F3330   1.382       .  S
C3331      C3332   1.400       .  A
C3331      C3336   1.410       .  A
C3331      H3338   1.084       .  S
C3332      C3333   1.410       .  A
C3333      C3340   1.518       .  S
C3333      C3334   1.409       .  A
C3334      C3335   1.415       .  A
C3334      H3339   1.079       .  S
C3335      C3336   1.431       .  A
C3336      C3337   1.521       .  S
C3337      F3341   1.384       .  S
C3337      F3342   1.379       .  S
C3337      F3343   1.383       .  S
C3340      F3344   1.383       .  S
C3340      F3345   1.382       .  S
C3340      F3346   1.384       .  S
O3347      C3349   1.291       .  A
O3348      C3349   1.286       .  A
O3348     Zr3385   2.436   1_556  S
C3349      C3762   1.510       .  S
O3350      C3352   1.290       .  A
O3350     Zr3362   2.457       .  S
O3351      C3352   1.285       .  A
C3352      C3714   1.477       .  S
O3353      C3355   1.293       .  A
O3354      C3355   1.286       .  A
C3355      C3810   1.484       .  S
O3356      C3358   1.286       .  A
O3356     Zr3359   2.430       .  S
O3357      C3358   1.285       .  A
C3358      C3797   1.469       .  S
Zr3359     O3360   2.434       .  S
Zr3359     O3361   2.436       .  S
O3361      H3406   0.990       .  S
Zr3362     O3364   2.433       .  S
Zr3362     O3366   2.361       .  S
O3366      H3393   0.966       .  S
O3367      C3369   1.292       .  A
O3368      C3369   1.281       .  A
C3369      C3698   1.493       .  S
O3370      C3372   1.287       .  A
O3370     Zr3382   2.427   1_655  S
O3371      C3372   1.281       .  A
C3372      C3733   1.494       .  S
O3373      C3375   1.286       .  A
O3374      C3375   1.290       .  A
O3374     Zr3386   2.444       .  S
C3375      C3749   1.499       .  S
O3376      C3378   1.288       .  A
O3376     Zr3379   2.445   1_655  S
O3377      C3378   1.287       .  A
C3378      C3781   1.479       .  S
Zr3379     O3380   2.437       .  S
Zr3379     O3381   2.435       .  S
Zr3379     O3388   2.369   1_455  S
O3380      H3405   0.990       .  S
Zr3382     O3384   2.435       .  S
O3384      H3408   0.990       .  S
Zr3385     O3391   2.380   1_554  S
Zr3386     O3392   2.379       .  S
O3387      H3395   0.966       .  S
O3390      H3394   0.966       .  S
O3391      H3396   0.966       .  S
C3409      C3410   1.538       .  S
C3409      C3415   1.532       .  S
C3409      C3413   1.551       .  S
C3409      C3701   1.538       .  S
C3410      H3417   1.081       .  S
C3410      C3411   1.360       .  D
C3411      C3412   1.550       .  S
C3411      C3650   1.494       .  S
C3412      C3416   1.541       .  S
C3412      C3414   1.541       .  S
C3412      H3418   1.110       .  S
C3413      H3419   1.085       .  S
C3413      C3414   1.370       .  D
C3414      C3666   1.490       .  S
C3415      H3420   1.086       .  S
C3415      C3416   1.364       .  D
C3416      C3682   1.488       .  S
C3421      C3422   1.548       .  S
C3421      C3427   1.538       .  S
C3421      C3425   1.529       .  S
C3421      C3794   1.534       .  S
C3422      H3429   1.080       .  S
C3422      C3423   1.376       .  D
C3423      C3424   1.543       .  S
C3423      C3685   1.500       .  S
C3424      C3428   1.544       .  S
C3424      C3426   1.536       .  S
C3424      H3430   1.101       .  S
C3425      H3431   1.087       .  S
C3425      C3426   1.356       .  D
C3426      C3634   1.480       .  S
C3427      H3432   1.087       .  S
C3427      C3428   1.357       .  D
C3428      C3618   1.480       .  S
C3433      C3434   1.547       .  S
C3433      C3439   1.542       .  S
C3433      C3437   1.542       .  S
C3433      C3717   1.547       .  S
C3434      H3441   1.078       .  S
C3434      C3435   1.363       .  D
C3435      C3436   1.539       .  S
C3435      C3621   1.488       .  S
C3436      C3440   1.547       .  S
C3436      C3438   1.547       .  S
C3436      H3442   1.111       .  S
C3437      H3443   1.082       .  S
C3437      C3438   1.371       .  D
C3438      C3602   1.506       .  S
C3439      H3444   1.086       .  S
C3439      C3440   1.359       .  D
C3440      C3586   1.490       .  S
C3445      C3446   1.566       .  S
C3445      C3451   1.544       .  S
C3445      C3449   1.548       .  S
C3445      C3746   1.564       .  S
C3446      H3453   1.083       .  S
C3446      C3447   1.371       .  D
C3447      C3448   1.522       .  S
C3447      C3589   1.497       .  S
C3448      C3452   1.531       .  S
C3448      C3450   1.539       .  S
C3448      H3454   1.108       .  S
C3449      H3455   1.074       .  S
C3449      C3450   1.370       .  D
C3450      C3570   1.496       .  S
C3451      H3456   1.086       .  S
C3451      C3452   1.362       .  D
C3452      C3653   1.489       .  S
C3457      C3458   1.548       .  S
C3457      C3463   1.549       .  S
C3457      C3461   1.541       .  S
C3457      C3778   1.552       .  S
C3458      H3465   1.084       .  S
C3458      C3459   1.384       .  D
C3459      C3460   1.549       .  S
C3459      C3554   1.525       .  S
C3460      C3464   1.534       .  S
C3460      C3462   1.531       .  S
C3460      H3466   1.090       .  S
C3461      H3467   1.086       .  S
C3461      C3462   1.362       .  D
C3462      C3669   1.487       .  S
C3463      H3468   1.084       .  S
C3463      C3464   1.357       .  D
C3464      C3538   1.480       .  S
C3469      C3470   1.530       .  S
C3469      C3475   1.536       .  S
C3469      C3473   1.550       .  S
C3469      C3730   1.535       .  S
C3470      H3477   1.087       .  S
C3470      C3471   1.354       .  D
C3471      C3472   1.542       .  S
C3471      C3541   1.478       .  S
C3472      C3476   1.539       .  S
C3472      C3474   1.548       .  S
C3472      H3478   1.103       .  S
C3473      H3479   1.079       .  S
C3473      C3474   1.372       .  D
C3474      C3573   1.497       .  S
C3475      H3480   1.087       .  S
C3475      C3476   1.365       .  D
C3476      C3522   1.496       .  S
C3481      C3482   1.543       .  S
C3481      C3487   1.554       .  S
C3481      C3485   1.542       .  S
C3481      C3813   1.555       .  S
C3482      H3489   1.084       .  S
C3482      C3483   1.366       .  D
C3483      C3484   1.540       .  S
C3483      C3525   1.490       .  S
C3484      C3488   1.538       .  S
C3484      C3486   1.545       .  S
C3484      H3490   1.103       .  S
C3485      H3491   1.086       .  S
C3485      C3486   1.371       .  D
C3486      C3605   1.505       .  S
C3487      H3492   1.084       .  S
C3487      C3488   1.364       .  D
C3488      C3506   1.496       .  S
C3493      C3494   1.545       .  S
C3493      C3499   1.546       .  S
C3493      C3497   1.564       .  S
C3493      C3765   1.559       .  S
C3494      H3501   1.085       .  S
C3494      C3495   1.364       .  D
C3495      C3496   1.532       .  S
C3495      C3509   1.486       .  S
C3496      C3500   1.541       .  S
C3496      C3498   1.521       .  S
C3496      H3502   1.109       .  S
C3497      H3503   1.079       .  S
C3497      C3498   1.363       .  D
C3498      C3637   1.480       .  S
C3499      H3504   1.081       .  S
C3499      C3500   1.372       .  D
C3500      C3557   1.508       .  S
C3505      C3506   1.407       .  A
C3505      C3510   1.409       .  A
C3505      H3512   1.083       .  S
C3506      C3507   1.421       .  A
C3507      C3514   1.514       .  S
C3507      C3508   1.404       .  A
C3508      C3509   1.398       .  A
C3508      H3513   1.081       .  S
C3509      C3510   1.415       .  A
C3510      C3511   1.515       .  S
C3511      F3515   1.385       .  S
C3511      F3516   1.381       .  S
C3511      F3517   1.379       .  S
C3514      F3518   1.374       .  S
C3514      F3519   1.380       .  S
C3514      F3520   1.385       .  S
C3521      C3522   1.405       .  A
C3521      C3526   1.404       .  A
C3521      H3528   1.082       .  S
C3522      C3523   1.419       .  A
C3523      C3530   1.519       .  S
C3523      C3524   1.409       .  A
C3524      C3525   1.406       .  A
C3524      H3529   1.083       .  S
C3525      C3526   1.424       .  A
C3526      C3527   1.524       .  S
C3527      F3531   1.385       .  S
C3527      F3532   1.376       .  S
C3527      F3533   1.383       .  S
C3530      F3534   1.379       .  S
C3530      F3535   1.381       .  S
C3530      F3536   1.384       .  S
C3537      C3538   1.400       .  A
C3537      C3542   1.404       .  A
C3537      H3544   1.084       .  S
C3538      C3539   1.413       .  A
C3539      C3546   1.518       .  S
C3539      C3540   1.406       .  A
C3540      C3541   1.402       .  A
C3540      H3545   1.084       .  S
C3541      C3542   1.423       .  A
C3542      C3543   1.523       .  S
C3543      F3547   1.383       .  S
C3543      F3548   1.380       .  S
C3543      F3549   1.382       .  S
C3546      F3550   1.383       .  S
C3546      F3551   1.377       .  S
C3546      F3552   1.385       .  S
C3553      C3554   1.414       .  A
C3553      C3558   1.410       .  A
C3553      H3560   1.082       .  S
C3554      C3555   1.431       .  A
C3555      C3562   1.523       .  S
C3555      C3556   1.408       .  A
C3556      C3557   1.405       .  A
C3556      H3561   1.077       .  S
C3557      C3558   1.421       .  A
C3558      C3559   1.520       .  S
C3559      F3563   1.385       .  S
C3559      F3564   1.384       .  S
C3559      F3565   1.381       .  S
C3562      F3566   1.385       .  S
C3562      F3567   1.379       .  S
C3562      F3568   1.386       .  S
C3569      C3570   1.403       .  A
C3569      C3574   1.392       .  A
C3569      H3576   1.081       .  S
C3570      C3571   1.423       .  A
C3571      C3578   1.523       .  S
C3571      C3572   1.411       .  A
C3572      C3573   1.413       .  A
C3572      H3577   1.082       .  S
C3573      C3574   1.416       .  A
C3574      C3575   1.513       .  S
C3575      F3579   1.384       .  S
C3575      F3580   1.383       .  S
C3575      F3581   1.365       .  S
C3578      F3582   1.378       .  S
C3578      F3583   1.382       .  S
C3578      F3584   1.385       .  S
C3585      C3586   1.398       .  A
C3585      C3590   1.403       .  A
C3585      H3592   1.084       .  S
C3586      C3587   1.429       .  A
C3587      C3594   1.520       .  S
C3587      C3588   1.410       .  A
C3588      C3589   1.400       .  A
C3588      H3593   1.085       .  S
C3589      C3590   1.422       .  A
C3590      C3591   1.514       .  S
C3591      F3595   1.377       .  S
C3591      F3596   1.379       .  S
C3591      F3597   1.385       .  S
C3594      F3598   1.383       .  S
C3594      F3599   1.376       .  S
C3594      F3600   1.384       .  S
C3601      C3602   1.403       .  A
C3601      C3606   1.410       .  A
C3601      H3608   1.076       .  S
C3602      C3603   1.423       .  A
C3603      C3610   1.520       .  S
C3603      C3604   1.417       .  A
C3604      C3605   1.408       .  A
C3604      H3609   1.083       .  S
C3605      C3606   1.420       .  A
C3606      C3607   1.519       .  S
C3607      F3611   1.381       .  S
C3607      F3612   1.381       .  S
C3607      F3613   1.378       .  S
C3610      F3614   1.381       .  S
C3610      F3615   1.383       .  S
C3610      F3616   1.385       .  S
C3617      C3618   1.399       .  A
C3617      C3622   1.402       .  A
C3617      H3624   1.083       .  S
C3618      C3619   1.408       .  A
C3619      C3626   1.514       .  S
C3619      C3620   1.411       .  A
C3620      C3621   1.407       .  A
C3620      H3625   1.081       .  S
C3621      C3622   1.414       .  A
C3622      C3623   1.511       .  S
C3623      F3627   1.385       .  S
C3623      F3628   1.380       .  S
C3623      F3629   1.382       .  S
C3626      F3630   1.382       .  S
C3626      F3631   1.384       .  S
C3626      F3632   1.383       .  S
C3633      C3634   1.402       .  A
C3633      C3638   1.405       .  A
C3633      H3640   1.085       .  S
C3634      C3635   1.413       .  A
C3635      C3642   1.515       .  S
C3635      C3636   1.400       .  A
C3636      C3637   1.404       .  A
C3636      H3641   1.083       .  S
C3637      C3638   1.420       .  A
C3638      C3639   1.518       .  S
C3639      F3643   1.384       .  S
C3639      F3644   1.377       .  S
C3639      F3645   1.383       .  S
C3642      F3646   1.380       .  S
C3642      F3647   1.382       .  S
C3642      F3648   1.385       .  S
C3649      C3650   1.404       .  A
C3649      C3654   1.411       .  A
C3649      H3656   1.082       .  S
C3650      C3651   1.425       .  A
C3651      C3658   1.517       .  S
C3651      C3652   1.407       .  A
C3652      C3653   1.398       .  A
C3652      H3657   1.085       .  S
C3653      C3654   1.418       .  A
C3654      C3655   1.518       .  S
C3655      F3659   1.385       .  S
C3655      F3660   1.377       .  S
C3655      F3661   1.381       .  S
C3658      F3662   1.380       .  S
C3658      F3663   1.375       .  S
C3658      F3664   1.383       .  S
C3665      C3666   1.403       .  A
C3665      C3670   1.409       .  A
C3665      H3672   1.079       .  S
C3666      C3667   1.413       .  A
C3667      C3674   1.511       .  S
C3667      C3668   1.408       .  A
C3668      C3669   1.403       .  A
C3668      H3673   1.081       .  S
C3669      C3670   1.416       .  A
C3670      C3671   1.518       .  S
C3671      F3675   1.385       .  S
C3671      F3676   1.382       .  S
C3671      F3677   1.382       .  S
C3674      F3678   1.379       .  S
C3674      F3679   1.383       .  S
C3674      F3680   1.381       .  S
C3681      C3682   1.399       .  A
C3681      C3686   1.406       .  A
C3681      H3688   1.080       .  S
C3682      C3683   1.418       .  A
C3683      C3690   1.520       .  S
C3683      C3684   1.401       .  A
C3684      C3685   1.407       .  A
C3684      H3689   1.084       .  S
C3685      C3686   1.428       .  A
C3686      C3687   1.520       .  S
C3687      F3691   1.384       .  S
C3687      F3692   1.373       .  S
C3687      F3693   1.375       .  S
C3690      F3694   1.379       .  S
C3690      F3695   1.383       .  S
C3690      F3696   1.385       .  S
C3697      C3698   1.402       .  A
C3697      C3702   1.398       .  A
C3697      H3704   1.084       .  S
C3698      C3699   1.425       .  A
C3699      C3706   1.523       .  S
C3699      C3700   1.411       .  A
C3700      C3701   1.411       .  A
C3700      H3705   1.081       .  S
C3701      C3702   1.428       .  A
C3702      C3703   1.524       .  S
C3703      F3707   1.382       .  S
C3703      F3708   1.377       .  S
C3703      F3709   1.386       .  S
C3706      F3710   1.380       .  S
C3706      F3711   1.383       .  S
C3706      F3712   1.385       .  S
C3713      C3714   1.401       .  A
C3713      C3718   1.410       .  A
C3713      H3720   1.085       .  S
C3714      C3715   1.411       .  A
C3715      C3722   1.518       .  S
C3715      C3716   1.407       .  A
C3716      C3717   1.413       .  A
C3716      H3721   1.083       .  S
C3717      C3718   1.427       .  A
C3718      C3719   1.518       .  S
C3719      F3723   1.382       .  S
C3719      F3724   1.383       .  S
C3719      F3725   1.382       .  S
C3722      F3727   1.384       .  S
C3722      F3728   1.383       .  S
C3729      C3730   1.413       .  A
C3729      C3734   1.408       .  A
C3729      H3736   1.070       .  S
C3730      C3731   1.435       .  A
C3731      C3738   1.534       .  S
C3731      C3732   1.397       .  A
C3732      C3733   1.403       .  A
C3732      H3737   1.084       .  S
C3733      C3734   1.422       .  A
C3734      C3735   1.525       .  S
C3738      F3742   1.384       .  S
C3738      F3743   1.372       .  S
C3738      F3744   1.384       .  S
C3745      C3746   1.416       .  A
C3745      C3750   1.412       .  A
C3745      H3752   1.075       .  S
C3746      C3747   1.443       .  A
C3747      C3754   1.526       .  S
C3747      C3748   1.414       .  A
C3748      C3749   1.398       .  A
C3748      H3753   1.083       .  S
C3749      C3750   1.418       .  A
C3750      C3751   1.522       .  S
C3751      F3755   1.384       .  S
C3751      F3756   1.383       .  S
C3751      F3757   1.384       .  S
C3754      F3758   1.375       .  S
C3754      F3759   1.382       .  S
C3754      F3760   1.383       .  S
C3761      C3762   1.407       .  A
C3761      C3766   1.412       .  A
C3761      H3768   1.084       .  S
C3762      C3763   1.422       .  A
C3763      C3770   1.525       .  S
C3763      C3764   1.411       .  A
C3764      C3765   1.416       .  A
C3764      H3769   1.067       .  S
C3765      C3766   1.437       .  A
C3766      C3767   1.529       .  S
C3767      F3771   1.384       .  S
C3767      F3772   1.374       .  S
C3767      F3773   1.384       .  S
C3770      F3774   1.385       .  S
C3770      F3775   1.382       .  S
C3770      F3776   1.380       .  S
C3777      C3778   1.417       .  A
C3777      C3782   1.407       .  A
C3777      H3784   1.078       .  S
C3778      C3779   1.435       .  A
C3779      C3786   1.521       .  S
C3779      C3780   1.412       .  A
C3780      C3781   1.398       .  A
C3780      H3785   1.085       .  S
C3781      C3782   1.408       .  A
C3782      C3783   1.520       .  S
C3783      F3787   1.384       .  S
C3783      F3789   1.382       .  S
C3786      F3790   1.376       .  S
C3786      F3791   1.383       .  S
C3786      F3792   1.385       .  S
C3793      C3794   1.413       .  A
C3793      C3798   1.399       .  A
C3793      H3800   1.082       .  S
C3794      C3795   1.425       .  A
C3795      C3802   1.519       .  S
C3795      C3796   1.406       .  A
C3796      C3797   1.401       .  A
C3796      H3801   1.085       .  S
C3797      C3798   1.410       .  A
C3798      C3799   1.519       .  S
C3799      F3803   1.385       .  S
C3799      F3804   1.379       .  S
C3799      F3805   1.383       .  S
C3802      F3806   1.385       .  S
C3802      F3807   1.382       .  S
C3802      F3808   1.383       .  S
C3809      C3810   1.400       .  A
C3809      C3814   1.411       .  A
C3809      H3816   1.084       .  S
C3810      C3811   1.411       .  A
C3811      C3818   1.519       .  S
C3811      C3812   1.410       .  A
C3812      C3813   1.417       .  A
C3812      H3817   1.078       .  S
C3813      C3814   1.433       .  A
C3814      C3815   1.522       .  S
C3815      F3819   1.384       .  S
C3815      F3820   1.378       .  S
C3815      F3821   1.383       .  S
C3818      F3822   1.383       .  S
C3818      F3823   1.382       .  S
C3818      F3824   1.385       .  S
