geometry optimzed in LAMMPS
_audit_creation_date              2020-11-30 
_audit_creation_method            'lammps2cif' 
_symmetry_space_group_name_H-M    'P1' 
_symmetry_Int_Tables_number       1 
_symmetry_cell_setting            triclinic 
loop_ 
_symmetry_equiv_pos_as_xyz 
  x,y,z 
_cell_length_a                    31.420530505686447 
_cell_length_b                    31.356367015894175 
_cell_length_c                    31.322527557786202 
_cell_angle_alpha                 90.06058169829578 
_cell_angle_beta                  90.0852220274001 
_cell_angle_gamma                 89.57404903115145 
loop_ 
_atom_site_label 
_atom_site_type_symbol 
_atom_site_fract_x 
_atom_site_fract_y 
_atom_site_fract_z 
_atom_site_charge 
O1          O  0.00142054  0.12351650  0.06920175    -0.85340
O2          O  0.99905820  0.88043129  0.07325672    -0.85510
O3          O  0.92949566  0.00428899  0.12235431    -0.87180
O4          O  0.07029929  0.00180090  0.12277663    -0.85940
O5          O  0.12172455  0.00073644  0.07084000    -0.85530
O6          O  0.87802100  0.00360292  0.07033678    -0.86900
O7          O  0.99988247  0.93224924  0.12502386    -0.85370
O8          O  0.00025662  0.07229154  0.12141026    -0.84960
Zr9        Zr  0.99987605  0.00133142  0.08801517     2.84310
O10         O  0.04238079  0.95698097  0.04489789    -1.06940
O11         O  0.95737776  0.04417543  0.04353415    -1.07670
C12         C  0.00101965  0.11166404  0.10880361     1.07760
C13         C  0.99956391  0.89275971  0.11279179     1.07710
C14         C  0.89011555  0.00472486  0.10982824     1.10690
C15         C  0.10968201  0.00187630  0.11032195     1.08470
H16         H  0.93838536  0.94070441  0.06303255     0.34030
O17         O  0.95634133  0.95795546  0.04509585    -1.27890
H18         H  0.06119388  0.06091735  0.06150329     0.33700
O19         O  0.04333140  0.04307706  0.04398628    -1.29570
O20         O  0.99884370  0.87728091  0.93236339    -0.85340
O21         O  0.00215770  0.12018661  0.92934717    -0.86840
O22         O  0.87775689  0.93136445  0.00034160    -0.85420
O23         O  0.11945640  0.92757506  0.00565624    -0.85470
O24         O  0.12231005  0.06812394  0.00075911    -0.85180
O25         O  0.87993165  0.07181463  0.00230757    -0.84980
O26         O  0.92887008  0.99975454  0.87992977    -0.85350
O27         O  0.07003000  0.99872747  0.87969142    -0.84820
O28         O  0.87727201  0.00156208  0.93165949    -0.85880
O29         O  0.12166645  0.99799887  0.93158971    -0.85040
O30         O  0.92925443  0.87917059  0.00138394    -0.85440
O31         O  0.93172362  0.12297866  0.00150749    -0.85160
O32         O  0.07095289  0.12047053  0.00017550    -0.84810
O33         O  0.06776426  0.87629066  0.00527615    -0.85220
O34         O  0.99904550  0.92855775  0.88014414    -0.85510
O35         O  0.00136891  0.06807297  0.87789499    -0.86850
Zr36       Zr  0.99907013  0.91353942  0.00219160     2.83100
Zr37       Zr  0.00084195  0.08648793  0.00007309     2.83500
Zr38       Zr  0.91357777  0.00108118  0.00094997     2.84090
Zr39       Zr  0.08619844  0.99870545  0.00131373     2.83360
Zr40       Zr  0.99970814  0.99893039  0.91436034     2.84220
O41         O  0.04326488  0.04181022  0.95742800    -1.07420
O42         O  0.95645807  0.95688041  0.95823837    -1.06920
C43         C  0.99881826  0.88920257  0.89271317     1.07740
C44         C  0.00223186  0.10759453  0.88991308     1.10350
C45         C  0.88989641  0.89172249  0.00055912     1.07910
C46         C  0.10708394  0.88820228  0.00662093     1.08270
C47         C  0.11028889  0.10777819  0.00057424     1.07850
C48         C  0.89237598  0.11110511  0.00247613     1.07400
C49         C  0.88937480  0.00079086  0.89218291     1.07830
C50         C  0.10946788  0.99845555  0.89206388     1.07340
H51         H  0.93943651  0.06135157  0.93937992     0.34020
O52         O  0.95705039  0.04340525  0.95728650    -1.28520
H53         H  0.06038203  0.93723754  0.94095585     0.34040
O54         O  0.04267462  0.95555952  0.95837471    -1.29900
C55         C  0.99798237  0.16559634  0.21833373     0.04270
C56         C  0.00014804  0.20865295  0.20715381    -0.11880
C57         C  0.00343036  0.22075914  0.16438424     0.01770
C58         C  0.00414001  0.18935008  0.13209929    -0.10400
C59         C  0.00138995  0.14560262  0.14256377     0.04270
C60         C  0.99872060  0.13431043  0.18604353    -0.09820
H61         H  0.99904423  0.23294300  0.23179826     0.09860
H62         H  0.00645926  0.19916972  0.09903955     0.07390
H63         H  0.99721902  0.10101737  0.19507743     0.07240
O64         O  0.99725086  0.11461709  0.42439665    -0.74150
O65         O  0.99755085  0.05654382  0.38053728    -0.53060
C66         C  0.99588207  0.09673292  0.38723201     0.79580
O67         O  0.12058714  0.00236845  0.57484958    -0.58750
O68         O  0.06324994  0.00377147  0.61931578    -0.51780
C69         C  0.10314841  0.00501274  0.61213866     0.71590
O70         O  0.12100124  0.99766683  0.42679973    -0.73310
O71         O  0.06361116  0.99586464  0.38228828    -0.53870
C72         C  0.10358233  0.99611659  0.38942765     0.77600
O73         O  0.99691291  0.11742796  0.57238613    -0.58450
O74         O  0.99574109  0.06088331  0.61804462    -0.51570
C75         C  0.99497167  0.10077574  0.61006419     0.74190
Zr76       Zr  0.99936515  0.08836409  0.49885969     2.54710
O77         O  0.05449579  0.14248107  0.49808573    -0.79020
O78         O  0.94433803  0.14344008  0.49839657    -0.92430
Zr79       Zr  0.09310087  0.99829200  0.50070236     2.64680
O80         O  0.14684522  0.05375758  0.49822112    -0.97390
O81         O  0.14844690  0.94361183  0.50303794    -0.79450
O82         O  0.04684347  0.04316171  0.46004320    -0.82810
O83         O  0.04683679  0.04486529  0.53907976    -2.17520
O84         O  0.88208918  0.99334294  0.57503991    -0.66200
O85         O  0.93978204  0.99602042  0.61901680    -0.50760
C86         C  0.89988096  0.99318507  0.61233426     0.72570
O87         O  0.00118617  0.87409057  0.43050516    -0.59110
O88         O  0.00136391  0.92979178  0.38381287    -0.51080
C89         C  0.00092410  0.88988334  0.39259421     0.74380
O90         O  0.00398236  0.87787087  0.57578819    -0.70500
O91         O  0.00665025  0.93552728  0.62004463    -0.49180
C92         C  0.00602282  0.89537496  0.61293729     0.75760
O93         O  0.88186342  0.99271014  0.42623814    -0.65830
O94         O  0.93947581  0.99347890  0.38226830    -0.53030
C95         C  0.89953159  0.99194431  0.38892844     0.74140
Zr96       Zr  0.90948372  0.99555995  0.50063905     2.77540
O97         O  0.85352822  0.94228907  0.49979862    -0.96580
O98         O  0.85668693  0.05276944  0.50068829    -0.77400
Zr99       Zr  0.00338240  0.90517834  0.50236409     2.70070
O100        O  0.95007663  0.84933374  0.50494029    -0.78650
O101        O  0.06081552  0.85267340  0.50162718    -0.97730
Zr102      Zr  0.00141496  0.99483201  0.42459290     2.21500
Zr103      Zr  0.00160349  0.99789353  0.57645083     2.11130
O104        O  0.95579208  0.95017643  0.54067565    -2.46420
O105        O  0.95567719  0.94871366  0.46206792    -0.78440
O106        O  0.95394967  0.04324433  0.53927090    -0.70640
O107        O  0.04910324  0.94996105  0.46220012    -2.31590
O108        O  0.95389951  0.04157070  0.46050203    -2.27800
O109        O  0.04932687  0.95143906  0.54106835    -0.72390
H110        H  0.06295664  0.06270178  0.55825641     0.79600
H111        H  0.06613926  0.93285131  0.44296991     0.80690
H112        H  0.93960779  0.93314525  0.56044030     0.82910
H113        H  0.93655573  0.05772845  0.44073236     0.80520
H114        H  0.13493468  0.91798498  0.49066138     0.43560
H115        H  0.07933996  0.86083903  0.52584983     0.42530
H116        H  0.92322209  0.86384651  0.49664474     0.42210
H117        H  0.86153361  0.92198521  0.52268119     0.40140
H118        H  0.86934307  0.07528569  0.51878319     0.43270
H119        H  0.92417654  0.13443373  0.47585736     0.38050
H120        H  0.07859384  0.12882475  0.48284462     0.44170
H121        H  0.13840083  0.07418057  0.52085928     0.40590
H122        H  0.82809829  0.95741966  0.51095484     0.45510
H123        H  0.95849038  0.16888736  0.48646912     0.44230
H124        H  0.17301453  0.03986595  0.50929890     0.44360
H125        H  0.04727345  0.82582295  0.51089407     0.44720
C126        C  0.83487395  0.00248986  0.21859140     0.04270
C127        C  0.86672890  0.00446626  0.18693458    -0.11880
C128        C  0.85612234  0.00594647  0.14326539     0.01770
C129        C  0.81265171  0.00738524  0.13195523    -0.10400
C130        C  0.78075955  0.00631750  0.16351741     0.04270
C131        C  0.79213423  0.00346082  0.20650145    -0.09820
H132        H  0.89987611  0.00410943  0.19647999     0.09860
H133        H  0.80336594  0.00879677  0.09865853     0.07390
H134        H  0.76749590  0.00155241  0.23059030     0.07240
C135        C  0.00409662  0.78268401  0.16490665     0.04270
C136        C  0.00234478  0.81534342  0.13416393    -0.11880
C137        C  0.00005918  0.85865331  0.14632482     0.01770
C138        C  0.99895959  0.86845539  0.19043500    -0.10400
C139        C  0.00047724  0.83555838  0.22113679     0.04270
C140        C  0.00315089  0.79313488  0.20814118    -0.09820
H141        H  0.00296959  0.80672320  0.10066875     0.09860
H142        H  0.99725632  0.90132883  0.20100075     0.07390
H143        H  0.00525588  0.76813089  0.23197066     0.07240
C144        C  0.21918433  0.00876735  0.16376069     0.04270
C145        C  0.18709677  0.00699610  0.13227979    -0.11880
C146        C  0.14377562  0.00380304  0.14373253     0.01770
C147        C  0.13346759  0.00257784  0.18746591    -0.10400
C148        C  0.16554130  0.00397316  0.21897377     0.04270
C149        C  0.20805614  0.00725045  0.20682191    -0.09820
H150        H  0.19611096  0.00789182  0.09892548     0.09860
H151        H  0.10050464  0.00027055  0.19723524     0.07390
H152        H  0.23271484  0.00820253  0.23104245     0.07240
C153        C  0.00105127  0.83501499  0.78329689     0.04270
C154        C  0.00125980  0.86657631  0.81521706    -0.11880
C155        C  0.99871703  0.85535923  0.85884796     0.01770
C156        C  0.99616168  0.81160062  0.86943012    -0.10400
C157        C  0.99657132  0.78015468  0.83717574     0.04270
C158        C  0.99886777  0.79217754  0.79446135    -0.09820
H159        H  0.00319906  0.89974145  0.80580454     0.09860
H160        H  0.99415223  0.80181253  0.90251950     0.07390
H161        H  0.99877899  0.76799066  0.76966353     0.07240
C162        C  0.16424859  0.00302407  0.78300856     0.04270
C163        C  0.13246188  0.00204875  0.81470918    -0.11880
C164        C  0.14333824  0.99892778  0.85837048     0.01770
C165        C  0.18697311  0.99667063  0.86939294    -0.10400
C166        C  0.21865632  0.99817975  0.83761402     0.04270
C167        C  0.20699461  0.00140375  0.79481879    -0.09820
H168        H  0.09933754  0.00350960  0.80513889     0.09860
H169        H  0.19652155  0.99411026  0.90254644     0.07390
H170        H  0.23146382  0.00254411  0.77046253     0.07240
C171        C  0.00320712  0.16220598  0.78053375     0.04270
C172        C  0.00285938  0.13028464  0.81221900    -0.11880
C173        C  0.00317758  0.14117725  0.85598161     0.01770
C174        C  0.00327472  0.18476660  0.86710185    -0.10400
C175        C  0.00327793  0.21664002  0.83548510     0.04270
C176        C  0.00401782  0.20509807  0.79244786    -0.09820
H177        H  0.00190500  0.09711621  0.80256423     0.09860
H178        H  0.00272596  0.19422427  0.90037815     0.07390
H179        H  0.00283851  0.22962632  0.76808130     0.07240
C180        C  0.83491134  0.99626154  0.78272597     0.04270
C181        C  0.86639643  0.99889268  0.81481441    -0.11880
C182        C  0.85535769  0.00069202  0.85840772     0.01770
C183        C  0.81158968  0.00162759  0.86911588    -0.10400
C184        C  0.78013851  0.99929930  0.83699865     0.04270
C185        C  0.79207780  0.99603024  0.79429514    -0.09820
H186        H  0.89961129  0.99929036  0.80564494     0.09860
H187        H  0.80180476  0.00366221  0.90220810     0.07390
H188        H  0.76769369  0.99315543  0.76995397     0.07240
O189        O  0.57651249  0.11881658  0.99757511    -0.74150
O190        O  0.61808509  0.05955711  0.00387250    -0.53060
C191        C  0.61302576  0.09965277  0.00021048     0.79580
O192        O  0.42582801  0.00753628  0.11784354    -0.58750
O193        O  0.38219687  0.01296671  0.05997110    -0.51780
C194        C  0.38890257  0.01248142  0.10012326     0.71590
O195        O  0.57378466  0.00722211  0.11793634    -0.73310
O196        O  0.61830046  0.00074680  0.06081325    -0.53870
C197        C  0.61101526  0.00569574  0.10059901     0.77600
O198        O  0.42785111  0.12184138  0.99341449    -0.58450
O199        O  0.38349426  0.06477430  0.99061175    -0.51570
C200        C  0.39063772  0.10470289  0.99016988     0.74190
Zr201      Zr  0.50176140  0.09335441  0.99745294     2.54710
O202        O  0.50093931  0.14722954  0.05345604    -0.79020
O203        O  0.50370001  0.14896736  0.94333278    -0.92430
Zr204      Zr  0.50007670  0.00263696  0.09106669     2.64680
O205        O  0.50083046  0.05472091  0.14877040    -0.97390
O206        O  0.49992315  0.94579265  0.14397746    -0.79450
O207        O  0.53977082  0.04726225  0.04454816    -0.82810
O208        O  0.46231745  0.05001457  0.04500477    -2.17520
O209        O  0.42629415  0.99806490  0.87926491    -0.66200
O210        O  0.38243398  0.99471164  0.93696076    -0.50760
C211        C  0.38934416  0.99487056  0.89674831     0.72570
O212        O  0.57260588  0.87991097  0.99471297    -0.59110
O213        O  0.61745237  0.93664464  0.99582982    -0.51080
C214        C  0.61004399  0.89683775  0.99328258     0.74380
O215        O  0.42346607  0.88412979  0.00054373    -0.70500
O216        O  0.38373076  0.94314999  0.01475840    -0.49180
C217        C  0.38752945  0.90345388  0.00733567     0.75760
O218        O  0.57193812  0.99958024  0.87767296    -0.65830
O219        O  0.61715841  0.00163026  0.93455749    -0.53030
C220        C  0.60935517  0.00138757  0.89438945     0.74140
Zr221      Zr  0.49955866  0.99915815  0.90723041     2.77540
O222        O  0.50129662  0.94307681  0.85345833    -0.96580
O223        O  0.49744142  0.05360854  0.85194153    -0.77400
Zr224      Zr  0.49881009  0.90857422  0.00114314     2.70070
O225        O  0.49486983  0.84945004  0.95094378    -0.78650
O226        O  0.50113041  0.85779442  0.05982268    -0.97730
Zr227      Zr  0.57510461  0.99894242  0.99859662     2.21500
Zr228      Zr  0.42564067  0.00290762  0.99920629     2.11130
O229        O  0.46042450  0.95383784  0.95350831    -2.46420
O230        O  0.53820038  0.95206348  0.95301401    -0.78440
O231        O  0.46169357  0.04806469  0.95150931    -0.70640
O232        O  0.53885204  0.95398162  0.04682575    -2.31590
O233        O  0.53957479  0.04603233  0.95141427    -2.27800
O234        O  0.46039294  0.95589121  0.04682580    -0.72390
H235        H  0.44318124  0.06806012  0.06114730     0.79600
H236        H  0.55861795  0.93729059  0.06369000     0.80690
H237        H  0.44063572  0.93678638  0.93734134     0.82910
H238        H  0.55926493  0.06225660  0.93437757     0.80520
H239        H  0.52725219  0.93047782  0.13966708     0.43560
H240        H  0.48020511  0.86902201  0.08068073     0.42530
H241        H  0.50041251  0.86259748  0.92278550     0.42210
H242        H  0.47799419  0.92362679  0.86158407     0.40140
H243        H  0.49274037  0.08063601  0.86767651     0.43270
H244        H  0.52715180  0.14037078  0.92400107     0.38050
H245        H  0.51170864  0.13211868  0.07907393     0.44170
H246        H  0.47895253  0.07612231  0.14065745     0.40590
H247        H  0.49108768  0.95711352  0.82701759     0.45510
H248        H  0.51457850  0.17435957  0.95854065     0.44230
H249        H  0.48847576  0.03959688  0.17351005     0.44360
H250        H  0.48774383  0.83177223  0.04815046     0.44720
O251        O  0.12105110  0.42537234  0.99504489    -0.74150
O252        O  0.06387581  0.38108359  0.99606700    -0.53060
C253        C  0.10375036  0.38809707  0.99443083     0.79580
O254        O  0.00729949  0.57669914  0.11620151    -0.58750
O255        O  0.00853540  0.61984652  0.05775331    -0.51780
C256        C  0.00963271  0.61354494  0.09797765     0.71590
O257        O  0.00672652  0.42916948  0.12010824    -0.73310
O258        O  0.00772523  0.38280521  0.06399253    -0.53870
C259        C  0.00819329  0.39128745  0.10389246     0.77600
O260        O  0.12024238  0.57336556  0.98888666    -0.58450
O261        O  0.06258181  0.61777599  0.98732255    -0.51570
C262        C  0.10256274  0.61060669  0.98577299     0.74190
Zr263      Zr  0.09326247  0.49958238  0.99517248     2.54710
O264        O  0.14763299  0.50228631  0.05052426    -0.79020
O265        O  0.14809580  0.49765991  0.94035840    -0.92430
Zr266      Zr  0.00510293  0.50221150  0.09036083     2.64680
O267        O  0.06110725  0.50221802  0.14414117    -0.97390
O268        O  0.95124203  0.50485494  0.14611002    -0.79450
O269        O  0.05026856  0.46145736  0.04454983    -0.82810
O270        O  0.04984028  0.54011854  0.04245630    -2.17520
O271        O  0.99611308  0.57138518  0.87748369    -0.66200
O272        O  0.99335663  0.61715096  0.93401750    -0.50760
C273        C  0.99320198  0.60902002  0.89410514     0.72570
O274        O  0.88227314  0.42689410  0.00304084    -0.59110
O275        O  0.93996981  0.38252047  0.00477332    -0.51080
C276        C  0.89996438  0.38966580  0.00519023     0.74380
O277        O  0.88224528  0.57436122  0.00562525    -0.70500
O278        O  0.93938398  0.61866806  0.00480495    -0.49180
C279        C  0.89953741  0.61159290  0.00709293     0.75760
O280        O  0.99606252  0.42375941  0.88072290    -0.65830
O281        O  0.99605555  0.38034317  0.93904709    -0.53030
C282        C  0.99472914  0.38680995  0.89883759     0.74250
Zr283      Zr  0.99809998  0.49811054  0.90677873     2.77540
O284        O  0.94210398  0.49650635  0.85301364    -0.96580
O285        O  0.05214939  0.49633167  0.85120964    -0.77400
Zr286      Zr  0.90998615  0.50038541  0.00188733     2.70070
O287        O  0.85504874  0.50227389  0.94703709    -0.78650
O288        O  0.85610528  0.49831890  0.05758001    -0.97730
Zr289      Zr  0.00207725  0.42430556  0.00046158     2.21500
Zr290      Zr  0.00113615  0.57565867  0.99682640     2.11130
O291        O  0.95282576  0.53845306  0.95272261    -2.46420
O292        O  0.95367975  0.45978395  0.95465987    -0.78440
O293        O  0.04620184  0.53820344  0.94933697    -0.70640
O294        O  0.95701835  0.46205220  0.04787888    -2.31590
O295        O  0.04646713  0.45959124  0.95102597    -2.27800
O296        O  0.95660063  0.54068046  0.04609449    -0.72390
H297        H  0.06754892  0.55992459  0.05789313     0.79600
H298        H  0.94103453  0.44293284  0.06580806     0.80690
H299        H  0.93496447  0.55764329  0.93640827     0.82910
H300        H  0.06249032  0.43962724  0.93377008     0.80520
H301        H  0.92586621  0.49155098  0.13306808     0.43560
H302        H  0.86448058  0.52101509  0.07785589     0.42530
H303        H  0.86761825  0.48639891  0.92273214     0.42210
H304        H  0.92266433  0.52022348  0.86089179     0.40140
H305        H  0.07835504  0.50625847  0.86559867     0.43270
H306        H  0.13984863  0.47389720  0.92129513     0.38050
H307        H  0.13500214  0.48693914  0.07498131     0.44170
H308        H  0.08068022  0.52508413  0.13508086     0.40590
H309        H  0.95608590  0.50619121  0.82646366     0.45510
H310        H  0.17391307  0.48717444  0.95530156     0.44230
H311        H  0.04719962  0.51357312  0.17016777     0.44360
H312        H  0.82994512  0.50941592  0.04371117     0.44720
C313        C  0.21917360  0.16245013  0.00062553     0.04270
C314        C  0.18771463  0.13051055  0.00053958    -0.11880
C315        C  0.14399881  0.14142953  0.00108527     0.01770
C316        C  0.13271836  0.18512849  0.00141791    -0.10400
C317        C  0.16416164  0.21693170  0.00161164     0.04270
C318        C  0.20702670  0.20529267  0.00172333    -0.09820
H319        H  0.19747082  0.09731501  0.99956609     0.09860
H320        H  0.09951747  0.19469878  0.00112274     0.07390
H321        H  0.23111640  0.22984429  0.00025757     0.07240
C322        C  0.21690771  0.83554362  0.00822797     0.04270
C323        C  0.18361949  0.86541661  0.01439056    -0.11880
C324        C  0.14083722  0.85427804  0.00814443     0.01770
C325        C  0.13131004  0.81103940  0.00096167    -0.10400
C326        C  0.16414499  0.78023598  0.99746710     0.04270
C327        C  0.20664893  0.79301899  0.99984569    -0.09820
H328        H  0.19117041  0.89803267  0.02261834     0.09860
H329        H  0.09847471  0.80129258  0.99759020     0.07390
H330        H  0.23161208  0.76988866  0.99351467     0.07240
C331        C  0.83719436  0.22016872  0.00076933     0.04270
C332        C  0.86925835  0.18848277  0.00088018    -0.11880
C333        C  0.85878316  0.14504846  0.00337249     0.01770
C334        C  0.81558853  0.13419530  0.00633809    -0.10400
C335        C  0.78321579  0.16551216  0.00338097     0.04270
C336        C  0.79442749  0.20842354  0.00075525    -0.09820
H337        H  0.90232804  0.19793629  0.99952899     0.09860
H338        H  0.80694624  0.10105684  0.01017304     0.07390
H339        H  0.76994374  0.23284586  0.99900746     0.07240
C340        C  0.83666562  0.78218794  0.00141224     0.04270
C341        C  0.86784560  0.81426522  0.00219300    -0.11880
C342        C  0.85636343  0.85785260  0.99983517     0.01770
C343        C  0.81267310  0.86842930  0.99681128    -0.10400
C344        C  0.78137746  0.83628553  0.99607334     0.04270
C345        C  0.79379963  0.79353223  0.99817103    -0.09820
H346        H  0.90105167  0.80500922  0.00453823     0.09860
H347        H  0.80282570  0.90157207  0.99528910     0.07390
H348        H  0.76985458  0.76882044  0.99748839     0.07240
C349        C  0.87324552  0.72273055  0.03988373     0.24740
C350        C  0.84832041  0.73654650  0.00532496    -0.23370
C351        C  0.83388699  0.70637426  0.97524459     0.19650
C352        C  0.84657692  0.66353151  0.97832403     0.24680
C353        C  0.87366303  0.65046708  0.01151314    -0.23310
C354        C  0.88571355  0.68010055  0.04297494     0.19580
F355        F  0.91210871  0.66813932  0.07526495    -0.13270
F356        F  0.88626407  0.75072563  0.07024019    -0.15630
F357        F  0.83561037  0.63578137  0.94694468    -0.15640
F358        F  0.80974565  0.71888425  0.94144905    -0.13270
C359        C  0.83156374  0.29643770  0.97574075     0.24740
C360        C  0.84837095  0.26562591  0.00407103    -0.23370
C361        C  0.87586813  0.27843653  0.03678248     0.19650
C362        C  0.88879451  0.32050766  0.03942870     0.24680
C363        C  0.87461892  0.35086330  0.00952620    -0.23310
C364        C  0.84475047  0.33902605  0.97845844     0.19580
F365        F  0.83131093  0.36759424  0.94873435    -0.13270
F366        F  0.80457255  0.28483745  0.94397080    -0.15630
F367        F  0.91799116  0.33107615  0.06944444    -0.15640
F368        F  0.89115797  0.24989666  0.06570609    -0.13270
C369        C  0.11297653  0.68122569  0.95286823     0.24740
C370        C  0.12808412  0.64947617  0.98095785    -0.23370
C371        C  0.15931776  0.65996927  0.01112956     0.19650
C372        C  0.17241020  0.70241882  0.01552949     0.24680
C373        C  0.15432895  0.73473949  0.98974552    -0.23310
C374        C  0.12590988  0.72338124  0.95719495     0.19580
F375        F  0.10953925  0.75334522  0.93039143    -0.13270
F376        F  0.08298004  0.67186953  0.92319147    -0.15630
F377        F  0.20032695  0.71239415  0.04705691    -0.15640
F378        F  0.17393365  0.63014081  0.03901332    -0.13270
C379        C  0.16733619  0.29251795  0.02814543     0.24740
C380        C  0.15285131  0.26257595  0.99791627    -0.23370
C381        C  0.12903155  0.27669667  0.96274389     0.19650
C382        C  0.11765322  0.31954351  0.95912053     0.24680
C383        C  0.12942925  0.34904055  0.99082667    -0.23310
C384        C  0.15539251  0.33557493  0.02476240     0.19580
F385        F  0.16607288  0.36321012  0.05633409    -0.13270
F386        F  0.19096708  0.27960484  0.06214465    -0.15630
F387        F  0.09234153  0.33188975  0.92611098    -0.15640
F388        F  0.11613963  0.24880844  0.93222468    -0.13270
C389        C  0.68697440  0.10171484  0.97460346     0.24740
C390        C  0.65370249  0.12253590  0.99667981    -0.23370
C391        C  0.66270962  0.15979230  0.01970347     0.19650
C392        C  0.70488477  0.17446522  0.02216709     0.24680
C393        C  0.73796704  0.15278781  0.00017955    -0.23310
C394        C  0.72779041  0.11755612  0.97480968     0.19580
F395        F  0.75770475  0.09731368  0.95074883    -0.13270
F396        F  0.68088031  0.06372269  0.95501597    -0.15630
F397        F  0.71357321  0.20822439  0.04780549    -0.15640
F398        F  0.63171742  0.17970601  0.04253930    -0.13270
C399        C  0.29635204  0.82553647  0.02287495     0.24740
C400        C  0.26194554  0.84996590  0.00628330    -0.23370
C401        C  0.27077713  0.88916085  0.98684146     0.19650
C402        C  0.31147186  0.90542554  0.98744250     0.24680
C403        C  0.34600917  0.88170544  0.00423542    -0.23310
C404        C  0.33831102  0.84102445  0.02099744     0.19580
F405        F  0.37067691  0.81761932  0.03791476    -0.13270
F406        F  0.28937471  0.78764490  0.04244711    -0.15630
F407        F  0.31656050  0.94562951  0.97233246    -0.15640
F408        F  0.23995971  0.91237352  0.96690601    -0.13270
C409        C  0.66235021  0.84182985  0.01862432     0.24740
C410        C  0.64896509  0.87106359  0.98749161    -0.23370
C411        C  0.67856677  0.88551243  0.95715896     0.19650
C412        C  0.72126534  0.87362217  0.95950651     0.24680
C413        C  0.73545413  0.84677918  0.99233545    -0.23310
C414        C  0.70539263  0.82963534  0.02101378     0.19580
F415        F  0.71815673  0.80335172  0.05305153    -0.13270
F416        F  0.63476967  0.82825853  0.04893008    -0.15630
F417        F  0.74895344  0.88932487  0.93030049    -0.15640
F418        F  0.66658698  0.91437800  0.92730133    -0.13270
C419        C  0.32133756  0.11735028  0.95584092     0.24740
C420        C  0.35158135  0.13047816  0.98628323    -0.23370
C421        C  0.33862416  0.15722468  0.01982398     0.19650
C422        C  0.29546837  0.16807767  0.02445881     0.24680
C423        C  0.26487806  0.15194053  0.99576088    -0.23310
C424        C  0.27843155  0.12767192  0.96068045     0.19580
F425        F  0.24998134  0.11327835  0.93142548    -0.13270
F426        F  0.33307303  0.09138536  0.92315926    -0.15630
F427        F  0.28320558  0.19221058  0.05835282    -0.15640
F428        F  0.36690276  0.16935824  0.05022742    -0.13270
C429        C  0.67139104  0.04113109  0.86770525     0.24740
C430        C  0.64711931  0.00373497  0.86692416    -0.23370
C431        C  0.66530512  0.96610939  0.85072940     0.19650
C432        C  0.70876745  0.96459441  0.84082764     0.24680
C433        C  0.73427195  0.00079504  0.84700118    -0.23310
C434        C  0.71495871  0.03953378  0.85868670     0.19580
F435        F  0.73841758  0.07559321  0.86176541    -0.13270
F436        F  0.65313290  0.07876559  0.87934696    -0.15630
F437        F  0.72635923  0.92741657  0.82696823    -0.15640
F438        F  0.64163420  0.93021717  0.84729145    -0.13270
C439        C  0.96056105  0.31779975  0.88500317     0.24740
C440        C  0.99163330  0.34766045  0.87338996    -0.23370
C441        C  0.02504481  0.33508469  0.84637401     0.19650
C442        C  0.02858946  0.29245557  0.83318139     0.24680
C443        C  0.99886083  0.26210597  0.84716071    -0.23310
C444        C  0.96414086  0.27543249  0.87204666     0.19580
F445        F  0.93407872  0.24716620  0.88453272    -0.13270
F446        F  0.92800100  0.32929628  0.91118689    -0.15630
F447        F  0.06238638  0.28026983  0.80899266    -0.15640
F448        F  0.05610926  0.36305687  0.83593305    -0.13270
C449        C  0.28104491  0.95857027  0.86723447     0.24740
C450        C  0.26437078  0.99555070  0.84825323    -0.23370
C451        C  0.29208725  0.02881888  0.83699133     0.19650
C452        C  0.33519058  0.02668851  0.84831100     0.24680
C453        C  0.35096204  0.99107587  0.87040100    -0.23310
C454        C  0.32425806  0.95605173  0.87740307     0.19580
F455        F  0.33993545  0.92008047  0.89589683    -0.13270
F456        F  0.25539476  0.92509022  0.87612856    -0.15630
F457        F  0.36069811  0.06057961  0.84063197    -0.15640
F458        F  0.27692947  0.06423342  0.81703538    -0.13270
C459        C  0.95660612  0.71767023  0.86467533     0.24740
C460        C  0.99394185  0.73431347  0.84713409    -0.23370
C461        C  0.02784372  0.70656585  0.83682067     0.19650
C462        C  0.02553800  0.66313048  0.84689699     0.24680
C463        C  0.98934695  0.64714875  0.86737621    -0.23310
C464        C  0.95430734  0.67438324  0.87466630     0.19580
F465        F  0.91904761  0.65949117  0.89457885    -0.13270
F466        F  0.92278002  0.74355202  0.87299531    -0.15630
F467        F  0.06015184  0.63769771  0.84067779    -0.15640
F468        F  0.06409285  0.72206841  0.81934015    -0.13270
C469        C  0.31977669  0.04827153  0.11206006     0.24740
C470        C  0.35001535  0.01776628  0.12568593    -0.23370
C471        C  0.33791100  0.98649271  0.15513025     0.19650
C472        C  0.29538844  0.98396671  0.16833598     0.24680
C473        C  0.26458506  0.01267566  0.15207884    -0.23310
C474        C  0.27747170  0.04562189  0.12492944     0.19580
F475        F  0.24887937  0.07476879  0.11011330    -0.13270
F476        F  0.33081091  0.07914674  0.08387922    -0.15630
F477        F  0.28378884  0.95181919  0.19478894    -0.15640
F478        F  0.36622273  0.95622504  0.16804736    -0.13270
C479        C  0.04065658  0.72529135  0.12353943     0.24740
C480        C  0.00843348  0.73748767  0.15207921    -0.23370
C481        C  0.98070032  0.70626170  0.16828902     0.19650
C482        C  0.98354905  0.66400365  0.15393546     0.24680
C483        C  0.01405348  0.65267871  0.12326012    -0.23310
C484        C  0.04344699  0.68331150  0.10929973     0.19580
F485        F  0.07356488  0.67294349  0.07989735    -0.13270
F486        F  0.06902306  0.75423460  0.10880209    -0.15630
F487        F  0.95433690  0.63520488  0.16713396    -0.15640
F488        F  0.94921526  0.71721571  0.19593809    -0.13270
C489        C  0.71977588  0.04279608  0.12779899     0.24740
C490        C  0.73522778  0.00840652  0.15197066    -0.23370
C491        C  0.70685694  0.97650817  0.16546242     0.19650
C492        C  0.66416912  0.97771563  0.15252163     0.24680
C493        C  0.64949300  0.01096945  0.12638015    -0.23310
C494        C  0.67723285  0.04412196  0.11526069     0.19580
F495        F  0.66357115  0.07651795  0.08986112    -0.13270
F496        F  0.74613021  0.07466095  0.11557306    -0.15630
F497        F  0.63820496  0.94477140  0.16245670    -0.15640
F498        F  0.72110691  0.94286342  0.18885298    -0.13270
C499        C  0.84100294  0.01473022  0.66250001     0.24740
C500        C  0.87515889  0.98777661  0.65186474    -0.23370
C501        C  0.89270823  0.96102102  0.68351612     0.19650
C502        C  0.87847231  0.96277203  0.72537429     0.24680
C503        C  0.84670936  0.99203361  0.73709489    -0.23310
C504        C  0.82690529  0.01703308  0.70501701     0.19580
F505        F  0.79583580  0.04556244  0.71521146    -0.13270
F506        F  0.82382635  0.04123565  0.63278188    -0.15630
F507        F  0.89668572  0.93644095  0.75470646    -0.15640
F508        F  0.92620766  0.93517047  0.67446433    -0.13270
C509        C  0.96272477  0.13003430  0.72038010     0.24740
C510        C  0.99907960  0.15134965  0.73481360    -0.23370
C511        C  0.03046920  0.16335057  0.70519240     0.19650
C512        C  0.02690055  0.15132436  0.66218335     0.24680
C513        C  0.99179463  0.12747529  0.64846599    -0.23310
C514        C  0.95906830  0.11830923  0.67758590     0.19580
F515        F  0.92489179  0.09512886  0.66502654    -0.13270
F516        F  0.93116749  0.11971094  0.74800169    -0.15630
F517        F  0.05948012  0.15935448  0.63499358    -0.15640
F518        F  0.06574667  0.18433730  0.71846771    -0.13270
C519        C  0.15674227  0.97830735  0.66458306     0.24740
C520        C  0.12870752  0.01049579  0.65096190    -0.23370
C521        C  0.11557663  0.04219384  0.68008730     0.19650
C522        C  0.12757420  0.04003325  0.72285006     0.24680
C523        C  0.15334814  0.00634716  0.73723208    -0.23310
C524        C  0.16918091  0.97631924  0.70753247     0.19580
F525        F  0.19444471  0.94354087  0.72066536    -0.13270
F526        F  0.16890363  0.94680199  0.63735641    -0.15630
F527        F  0.11319400  0.07032269  0.75042335    -0.15640
F528        F  0.08840460  0.07363725  0.66754862    -0.13270
C529        C  0.96685604  0.84310185  0.71189253     0.24740
C530        C  0.00327698  0.84608225  0.73777052    -0.23370
C531        C  0.04227104  0.85750058  0.71953606     0.19650
C532        C  0.04414875  0.86921853  0.67658570     0.24680
C533        C  0.00722255  0.86887105  0.65130880    -0.23310
C534        C  0.96894230  0.85400298  0.66864827     0.19580
F535        F  0.93283302  0.85385883  0.64474314    -0.13270
F536        F  0.92894795  0.83169877  0.72906129    -0.15630
F537        F  0.08147733  0.88318638  0.66010426    -0.15640
F538        F  0.07820924  0.85824283  0.74362551    -0.13270
C539        C  0.15731319  0.02525398  0.33832994     0.24740
C540        C  0.12921813  0.99291384  0.35037859    -0.23370
C541        C  0.11658704  0.96255112  0.31992761     0.19650
C542        C  0.12945545  0.96558983  0.27770918     0.24680
C543        C  0.15500096  0.99952656  0.26469422    -0.23310
C544        C  0.17020476  0.02859203  0.29555401     0.19580
F545        F  0.19517914  0.06170142  0.28380617    -0.13270
F546        F  0.16908940  0.05557598  0.36686577    -0.15630
F547        F  0.11581119  0.93595073  0.24923280    -0.15640
F548        F  0.08853188  0.93182170  0.33048708    -0.13270
C549        C  0.03883139  0.84481775  0.29019770     0.24740
C550        C  0.00034792  0.84437568  0.26733204    -0.23370
C551        C  0.96172025  0.84744789  0.28962248     0.19650
C552        C  0.96177722  0.85539210  0.33362793     0.24680
C553        C  0.00034463  0.86153053  0.35531065    -0.23310
C554        C  0.03874359  0.85296525  0.33413541     0.19580
F555        F  0.07619118  0.85477978  0.35570677    -0.13270
F556        F  0.07642165  0.83866753  0.26969327    -0.15630
F557        F  0.92423253  0.86007729  0.35460269    -0.15640
F558        F  0.92411710  0.84396471  0.26854566    -0.13270
C559        C  0.82732505  0.02115097  0.29695443     0.24740
C560        C  0.84627905  0.99654818  0.26410967    -0.23370
C561        C  0.87706202  0.96593435  0.27486205     0.19650
C562        C  0.89153466  0.96265793  0.31650156     0.24680
C563        C  0.87453456  0.98844576  0.34922341    -0.23310
C564        C  0.84121793  0.01682868  0.33945266     0.19580
F565        F  0.82504302  0.04301688  0.37000176    -0.13270
F566        F  0.79744764  0.05120894  0.28758930    -0.15630
F567        F  0.92533017  0.93683620  0.32408501    -0.15640
F568        F  0.89443289  0.93995321  0.24470927    -0.13270
C569        C  0.97211460  0.33645673  0.14751128     0.24740
C570        C  0.01007673  0.35342239  0.13140703    -0.23370
C571        C  0.04667917  0.32743110  0.12964972     0.19650
C572        C  0.04470641  0.28438549  0.14113244     0.24680
C573        C  0.00595985  0.26663140  0.15404770    -0.23310
C574        C  0.96997820  0.29319454  0.15850362     0.19580
F575        F  0.93225519  0.27663961  0.17121335    -0.13270
F576        F  0.93623906  0.36083479  0.14897318    -0.15630
F577        F  0.08030196  0.25971782  0.13854783    -0.15640
F578        F  0.08367919  0.34323501  0.11414032    -0.13270
C579        C  0.96198560  0.12500619  0.27629195     0.24740
C580        C  0.99414914  0.15317577  0.26381233    -0.23370
C581        C  0.02309723  0.16820517  0.29477550     0.19650
C582        C  0.02154194  0.15291121  0.33684293     0.24680
C583        C  0.99110601  0.12249061  0.34826683    -0.23310
C584        C  0.96051840  0.10981896  0.31803447     0.19580
F585        F  0.93034081  0.08086222  0.32851947    -0.13270
F586        F  0.93248810  0.11134683  0.24773597    -0.15630
F587        F  0.05176261  0.16507610  0.36528444    -0.15640
F588        F  0.05459600  0.19541580  0.28364086    -0.13270
loop_ 
_geom_bond_atom_site_label_1 
_geom_bond_atom_site_label_2 
_geom_bond_distance 
_geom_bond_site_symmetry_2 
_ccdc_geom_bond_type 
O1          Zr37   2.456       .  S
O1           C12   1.295       .  A
O2          Zr36   2.457       .  S
O2           C13   1.297       .  A
O3           Zr9   2.462       .  S
O3           C14   1.297       .  A
O4           Zr9   2.465   1_455  S
O4           C15   1.298       .  A
O5          Zr39   2.447   1_545  S
O5           C15   1.294       .  A
O6          Zr38   2.446       .  S
O6           C14   1.294       .  A
O7           Zr9   2.458   1_565  S
O7           C13   1.296       .  A
O8           Zr9   2.458   1_455  S
O8           C12   1.297       .  A
Zr9          O10   2.348   1_645  S
Zr9          O11   2.345       .  S
Zr9          O19   2.349   1_655  S
Zr9          O17   2.355   1_545  S
O10         Zr36   2.348   1_455  S
O10         Zr39   2.347       .  S
O11         Zr37   2.348   1_655  S
O11         Zr38   2.349       .  S
C12          C59   1.500       .  S
C13         C137   1.500   1_655  S
C14         C128   1.497       .  S
C15         C146   1.498       .  S
H16          O17   0.966       .  S
O17         Zr36   2.350       .  S
O17         Zr38   2.349   1_565  S
H18          O19   0.965       .  S
O19         Zr37   2.345       .  S
O19         Zr39   2.347   1_545  S
O20         Zr36   2.464   1_556  S
O20          C43   1.297       .  A
O21         Zr37   2.456   1_556  S
O21          C44   1.296       .  A
O22         Zr38   2.466   1_565  S
O22          C45   1.298       .  A
O23         Zr39   2.460       .  S
O23          C46   1.297       .  A
O24         Zr39   2.462   1_545  S
O24          C47   1.297       .  A
O25         Zr38   2.450       .  S
O25          C48   1.295       .  A
O26         Zr40   2.472       .  S
O26          C49   1.300   1_565  A
O27         Zr40   2.463   1_455  S
O27          C50   1.298       .  A
O28         Zr38   2.450   1_556  S
O28          C49   1.294       .  A
O29         Zr39   2.453   1_556  S
O29          C50   1.296       .  A
O30         Zr36   2.451       .  S
O30          C45   1.295       .  A
O31         Zr37   2.448   1_655  S
O31          C48   1.294       .  A
O32         Zr37   2.454       .  S
O32          C47   1.296       .  A
O33         Zr36   2.448   1_455  S
O33          C46   1.294       .  A
O34         Zr40   2.452       .  S
O34          C43   1.296       .  A
O35         Zr40   2.453   1_445  S
O35          C44   1.295       .  A
Zr36         O42   2.347   1_554  S
Zr36         O54   2.352   1_654  S
Zr37         O41   2.345   1_554  S
Zr37         O52   2.352   1_454  S
Zr38         O42   2.345   1_544  S
Zr38         O52   2.352   1_554  S
Zr39         O41   2.347   1_564  S
Zr39         O54   2.351   1_554  S
Zr40         O41   2.349   1_665  S
Zr40         O42   2.347       .  S
Zr40         O54   2.355   1_655  S
Zr40         O52   2.350   1_565  S
C43         C155   1.500       .  S
C44         C173   1.497       .  S
C45         C342   1.502   1_554  S
C46         C324   1.497       .  S
C47         C315   1.501       .  S
C48         C333   1.494       .  S
C49         C182   1.503       .  S
C50         C164   1.500       .  S
H51          O52   0.966       .  S
H53          O54   0.966       .  S
C55         C580   1.482       .  S
C55          C56   1.397   1_655  A
C55          C60   1.408       .  A
C56          C57   1.397       .  A
C56          H61   1.084   1_455  S
C57         C573   1.477       .  S
C57          C58   1.411       .  A
C58          C59   1.414       .  A
C58          H62   1.083       .  S
C59          C60   1.410   1_455  A
C60          H63   1.083       .  S
O64         Zr76   2.475       .  S
O64          C66   1.292       .  A
O65        Zr102   2.380   1_645  S
O65          C66   1.278       .  A
C66         C583   1.471       .  S
O67         Zr79   2.480   1_545  S
O67          C69   1.293       .  A
O68        Zr103   2.363   1_545  S
O68          C69   1.275       .  A
C69         C520   1.467       .  S
O70         Zr79   2.476       .  S
O70          C72   1.293       .  A
O71        Zr102   2.363       .  S
O71          C72   1.275       .  A
C72         C540   1.468       .  S
O73         Zr76   2.477       .  S
O73          C75   1.293       .  A
O74        Zr103   2.371   1_645  S
O74          C75   1.276       .  A
C75         C513   1.468       .  S
Zr76         O82   2.384   1_655  S
Zr76         O83   2.375   1_655  S
Zr76        O106   2.383       .  S
Zr76        O108   2.379       .  S
Zr76         O77   2.434   1_655  S
Zr76         O78   2.435       .  S
O77         H120   0.990       .  S
O78         H119   0.990       .  S
O78         H123   0.990       .  S
Zr79         O83   2.379   1_565  S
Zr79         O82   2.384   1_565  S
Zr79        O107   2.384       .  S
Zr79        O109   2.385       .  S
Zr79         O80   2.435   1_565  S
Zr79         O81   2.434       .  S
O80         H121   0.990       .  S
O80         H124   0.990       .  S
O81         H114   0.990       .  S
O82        Zr102   2.365   1_545  S
O83        Zr103   2.366   1_545  S
O83         H110   0.966       .  S
O84         Zr96   2.487       .  S
O84          C86   1.294       .  A
O85        Zr103   2.359   1_655  S
O85          C86   1.275       .  A
C86         C500   1.473       .  S
O87         Zr99   2.453       .  S
O87          C89   1.287       .  A
O88        Zr102   2.405       .  S
O88          C89   1.282       .  A
C89         C553   1.467       .  S
O90         Zr99   2.455       .  S
O90          C92   1.288       .  A
O91        Zr103   2.390       .  S
O91          C92   1.279       .  A
C92         C533   1.462       .  S
O93         Zr96   2.487       .  S
O93          C95   1.295       .  A
O94        Zr102   2.354   1_655  S
O94          C95   1.274       .  A
C95         C563   1.474       .  S
Zr96        O104   2.384       .  S
Zr96        O105   2.386       .  S
Zr96        O108   2.377   1_565  S
Zr96        O106   2.382   1_565  S
Zr96         O97   2.434       .  S
Zr96         O98   2.434   1_565  S
O97         H117   0.990       .  S
O97         H122   0.990       .  S
O98         H118   0.990       .  S
Zr99        O105   2.381   1_455  S
Zr99        O104   2.374   1_455  S
Zr99        O109   2.383       .  S
Zr99        O107   2.379       .  S
Zr99        O100   2.434   1_455  S
Zr99        O101   2.434       .  S
O100        H116   0.990       .  S
O101        H115   0.990       .  S
O101        H125   0.990       .  S
Zr102       O105   2.361   1_455  S
Zr102       O107   2.362       .  S
Zr102       O108   2.369   1_465  S
Zr103       O104   2.364   1_455  S
Zr103       O106   2.364   1_465  S
Zr103       O109   2.360       .  S
O104        H112   0.966       .  S
O107        H111   0.966       .  S
O108        H113   0.966       .  S
C126        C560   1.481   1_545  S
C126        C127   1.412       .  A
C126        C131   1.395       .  A
C127        C128   1.408       .  A
C127        H132   1.083       .  S
C128        C129   1.411       .  A
C129        C130   1.409       .  A
C129        H133   1.083       .  S
C130        C490   1.476       .  S
C130        C131   1.395       .  A
C131        H134   1.084       .  S
C135        C480   1.478       .  S
C135        C136   1.407       .  A
C135        C140   1.393       .  A
C136        C137   1.411       .  A
C136        H141   1.083       .  S
C137        C138   1.416   1_455  A
C138        C139   1.412   1_655  A
C138        H142   1.083       .  S
C139        C550   1.473       .  S
C139        C140   1.393       .  A
C140        H143   1.085       .  S
C144        C473   1.479       .  S
C144        C145   1.411       .  A
C144        C149   1.395       .  A
C145        C146   1.412       .  A
C145        H150   1.083       .  S
C146        C147   1.409       .  A
C147        C148   1.410       .  A
C147        H151   1.083       .  S
C148        C543   1.477   1_545  S
C148        C149   1.394       .  A
C149        H152   1.084       .  S
C153        C530   1.470       .  S
C153        C154   1.406       .  A
C153        C158   1.391   1_455  A
C154        C155   1.414   1_455  A
C154        H159   1.083       .  S
C155        C156   1.415       .  A
C156        C157   1.411       .  A
C156        H160   1.083       .  S
C157        C460   1.474       .  S
C157        C158   1.393       .  A
C158        H161   1.085       .  S
C162        C523   1.477       .  S
C162        C163   1.410       .  A
C162        C167   1.393       .  A
C163        C164   1.412   1_545  A
C163        H168   1.083       .  S
C164        C165   1.415       .  A
C165        C166   1.410       .  A
C165        H169   1.083       .  S
C166        C450   1.476       .  S
C166        C167   1.393   1_565  A
C167        H170   1.085       .  S
C171        C510   1.477   1_455  S
C171        C172   1.410       .  A
C171        C176   1.396       .  A
C172        C173   1.412       .  A
C172        H177   1.083       .  S
C173        C174   1.410       .  A
C174        C175   1.408       .  A
C174        H178   1.083       .  S
C175        C443   1.477   1_455  S
C175        C176   1.396       .  A
C176        H179   1.085       .  S
C180        C503   1.483       .  S
C180        C181   1.412       .  A
C180        C185   1.394       .  A
C181        C182   1.410   1_565  A
C181        H186   1.083       .  S
C182        C183   1.416       .  A
C183        C184   1.411   1_545  A
C183        H187   1.083       .  S
C184        C433   1.476   1_565  S
C184        C185   1.393       .  A
C185        H188   1.084       .  S
O189       Zr201   2.486       .  S
O189        C191   1.294   1_556  A
O190       Zr227   2.345   1_544  S
O190        C191   1.271       .  A
C191        C390   1.475   1_554  S
O192       Zr204   2.484       .  S
O192        C194   1.294       .  A
O193       Zr228   2.363   1_554  S
O193        C194   1.275       .  A
C194        C470   1.470       .  S
O195       Zr204   2.468       .  S
O195        C197   1.291       .  A
O196       Zr227   2.374   1_544  S
O196        C197   1.276       .  A
C197        C493   1.463       .  S
O198       Zr201   2.485       .  S
O198        C200   1.294       .  A
O199       Zr228   2.356       .  S
O199        C200   1.274       .  A
C200        C420   1.469       .  S
Zr201       O207   2.380   1_556  S
Zr201       O208   2.374   1_556  S
Zr201       O231   2.385       .  S
Zr201       O233   2.381       .  S
Zr201       O202   2.434   1_556  S
Zr201       O203   2.434       .  S
O202        H245   0.990       .  S
O203        H244   0.990       .  S
O203        H248   0.990       .  S
Zr204       O208   2.381       .  S
Zr204       O207   2.382       .  S
Zr204       O232   2.389   1_545  S
Zr204       O234   2.375   1_545  S
Zr204       O205   2.435       .  S
Zr204       O206   2.435   1_545  S
O205        H246   0.990       .  S
O205        H249   0.990       .  S
O206        H239   0.990       .  S
O207       Zr227   2.361   1_544  S
O208       Zr228   2.363   1_554  S
O208        H235   0.966       .  S
O209       Zr221   2.462       .  S
O209        C211   1.289       .  A
O210       Zr228   2.389   1_565  S
O210        C211   1.278       .  A
C211        C453   1.466       .  S
O212       Zr224   2.489   1_556  S
O212        C214   1.295       .  A
O213       Zr227   2.357       .  S
O213        C214   1.274       .  A
C214        C410   1.472       .  S
O215       Zr224   2.494       .  S
O215        C217   1.295       .  A
O216       Zr228   2.350   1_564  S
O216        C217   1.271       .  A
C217        C403   1.480       .  S
O218       Zr221   2.457       .  S
O218        C220   1.288   1_565  A
O219       Zr227   2.406   1_545  S
O219        C220   1.281       .  A
C220        C430   1.469       .  S
Zr221       O229   2.381       .  S
Zr221       O230   2.384       .  S
Zr221       O233   2.382   1_565  S
Zr221       O231   2.380   1_565  S
Zr221       O222   2.434       .  S
Zr221       O223   2.434   1_565  S
O222        H242   0.990       .  S
O222        H247   0.990       .  S
O223        H243   0.990       .  S
Zr224       O230   2.387   1_554  S
Zr224       O229   2.381   1_554  S
Zr224       O234   2.383       .  S
Zr224       O232   2.382       .  S
Zr224       O225   2.433   1_554  S
Zr224       O226   2.434       .  S
O225        H241   0.990       .  S
O226        H240   0.990       .  S
O226        H250   0.990       .  S
Zr227       O230   2.358       .  S
Zr227       O232   2.367   1_556  S
Zr227       O233   2.363   1_565  S
Zr228       O229   2.363   1_545  S
Zr228       O231   2.357       .  S
Zr228       O234   2.359   1_546  S
O229        H237   0.966       .  S
O232        H236   0.966       .  S
O233        H238   0.966       .  S
O251       Zr263   2.479       .  S
O251        C253   1.293       .  A
O252       Zr289   2.364   1_556  S
O252        C253   1.275       .  A
C253        C383   1.466       .  S
O254       Zr266   2.473       .  S
O254        C256   1.292       .  A
O255       Zr290   2.369   1_554  S
O255        C256   1.276       .  A
C256        C483   1.467       .  S
O257       Zr266   2.474       .  S
O257        C259   1.292       .  A
O258       Zr289   2.384       .  S
O258        C259   1.278       .  A
C259        C570   1.469       .  S
O260       Zr263   2.478       .  S
O260        C262   1.293       .  A
O261       Zr290   2.367       .  S
O261        C262   1.276       .  A
C262        C370   1.472       .  S
Zr263       O269   2.383   1_556  S
Zr263       O270   2.376   1_556  S
Zr263       O293   2.384       .  S
Zr263       O295   2.380       .  S
Zr263       O264   2.434   1_556  S
Zr263       O265   2.435       .  S
O264        H307   0.990       .  S
O265        H306   0.990       .  S
O265        H310   0.990       .  S
Zr266       O270   2.382       .  S
Zr266       O269   2.384       .  S
Zr266       O294   2.379   1_455  S
Zr266       O296   2.381   1_455  S
Zr266       O267   2.434       .  S
Zr266       O268   2.434   1_455  S
O267        H308   0.990       .  S
O267        H311   0.990       .  S
O268        H301   0.990       .  S
O269       Zr289   2.361       .  S
O270       Zr290   2.366   1_554  S
O270        H297   0.966       .  S
O271       Zr283   2.475       .  S
O271        C273   1.292       .  A
O272       Zr290   2.371   1_655  S
O272        C273   1.276       .  A
C273        C463   1.464       .  S
O274       Zr286   2.470       .  S
O274        C276   1.291       .  A
O275       Zr289   2.363   1_655  S
O275        C276   1.275       .  A
C276        C363   1.466       .  S
O277       Zr286   2.475       .  S
O277        C279   1.292       .  A
O278       Zr290   2.368   1_654  S
O278        C279   1.275       .  A
C279        C353   1.467       .  S
O280       Zr283   2.471       .  S
O280        C282   1.292       .  A
O281       Zr289   2.374   1_656  S
O281        C282   1.276       .  A
C282        C440   1.467       .  S
Zr283       O291   2.381       .  S
Zr283       O292   2.383       .  S
Zr283       O295   2.379   1_655  S
Zr283       O293   2.379   1_655  S
Zr283       O284   2.434       .  S
Zr283       O285   2.434   1_655  S
O284        H304   0.990       .  S
O284        H309   0.990       .  S
O285        H305   0.990       .  S
Zr286       O292   2.381   1_554  S
Zr286       O291   2.375   1_554  S
Zr286       O296   2.383       .  S
Zr286       O294   2.382       .  S
Zr286       O287   2.434   1_554  S
Zr286       O288   2.434       .  S
O287        H303   0.990       .  S
O288        H302   0.990       .  S
O288        H312   0.990       .  S
Zr289       O292   2.362   1_454  S
Zr289       O294   2.364   1_455  S
Zr289       O295   2.366   1_554  S
Zr290       O291   2.364   1_455  S
Zr290       O293   2.361       .  S
Zr290       O296   2.361   1_456  S
O291        H299   0.966       .  S
O294        H298   0.966       .  S
O295        H300   0.966       .  S
C313        C423   1.479   1_554  S
C313        C314   1.412       .  A
C313        C318   1.394       .  A
C314        C315   1.413       .  A
C314        H319   1.083   1_554  S
C315        C316   1.413       .  A
C316        C317   1.409       .  A
C316        H320   1.083       .  S
C317        C380   1.477   1_554  S
C317        C318   1.393       .  A
C318        H321   1.085       .  S
C322        C400   1.490       .  S
C322        C323   1.412       .  A
C322        C327   1.399   1_554  A
C323        C324   1.405       .  A
C323        H328   1.082       .  S
C324        C325   1.408       .  A
C325        C326   1.412   1_554  A
C325        H329   1.083   1_554  S
C326        C373   1.481       .  S
C326        C327   1.399       .  A
C327        H330   1.083       .  S
C331        C360   1.474       .  S
C331        C332   1.410       .  A
C331        C336   1.396       .  A
C332        C333   1.406       .  A
C332        H337   1.084   1_554  S
C333        C334   1.405       .  A
C334        C335   1.412       .  A
C334        H338   1.083       .  S
C335        C393   1.483       .  S
C335        C336   1.396       .  A
C336        H339   1.083   1_554  S
C340        C350   1.480       .  S
C340        C341   1.409       .  A
C340        C345   1.394   1_554  A
C341        C342   1.413   1_554  A
C341        H346   1.083       .  S
C342        C343   1.413       .  A
C343        C344   1.413       .  A
C343        H347   1.083       .  S
C344        C413   1.482       .  S
C344        C345   1.395       .  A
C345        H348   1.084       .  S
C349        C350   1.402       .  A
C349        C354   1.394       .  A
C349        F356   1.358       .  S
C350        C351   1.411   1_554  A
C351        C352   1.402       .  A
C351        F358   1.358       .  S
C352        C353   1.402   1_556  A
C352        F357   1.358       .  S
C353        C354   1.407       .  A
C354        F355   1.358       .  S
C359        C360   1.412   1_556  A
C359        C364   1.404       .  A
C359        F366   1.358       .  S
C360        C361   1.400       .  A
C361        C362   1.386       .  A
C361        F368   1.359       .  S
C362        C363   1.406       .  A
C362        F367   1.355       .  S
C363        C364   1.403   1_554  A
C364        F365   1.357       .  S
C369        C370   1.409       .  A
C369        C374   1.392       .  A
C369        F376   1.356       .  S
C370        C371   1.402   1_556  A
C371        C372   1.403       .  A
C371        F378   1.357       .  S
C372        C373   1.412   1_554  A
C372        F377   1.358       .  S
C373        C374   1.402       .  A
C374        F375   1.358       .  S
C379        C380   1.410   1_554  A
C379        C384   1.403       .  A
C379        F386   1.358       .  S
C380        C381   1.401       .  A
C381        C382   1.392       .  A
C381        F388   1.358       .  S
C382        C383   1.407       .  A
C382        F387   1.358       .  S
C383        C384   1.402   1_556  A
C384        F385   1.358       .  S
C389        C390   1.410       .  A
C389        C394   1.379       .  A
C389        F396   1.354       .  S
C390        C391   1.403   1_556  A
C391        C392   1.408       .  A
C391        F398   1.357       .  S
C392        C393   1.417       .  A
C392        F397   1.357       .  S
C393        C394   1.399   1_554  A
C394        F395   1.359       .  S
C399        C400   1.419       .  A
C399        C404   1.410       .  A
C399        F406   1.357       .  S
C400        C401   1.402   1_554  A
C401        C402   1.380       .  A
C401        F408   1.359       .  S
C402        C403   1.412   1_556  A
C402        F407   1.358       .  S
C403        C404   1.403       .  A
C404        F405   1.357       .  S
C409        C410   1.401   1_554  A
C409        C414   1.405       .  A
C409        F416   1.357       .  S
C410        C411   1.408       .  A
C411        C412   1.392       .  A
C411        F418   1.353       .  S
C412        C413   1.400       .  A
C412        F417   1.359       .  S
C413        C414   1.414   1_556  A
C414        F415   1.357       .  S
C419        C420   1.409       .  A
C419        C424   1.393       .  A
C419        F426   1.357       .  S
C420        C421   1.403   1_556  A
C421        C422   1.403       .  A
C421        F428   1.358       .  S
C422        C423   1.411   1_554  A
C422        F427   1.358       .  S
C423        C424   1.401       .  A
C424        F425   1.358       .  S
C429        C430   1.404       .  A
C429        C434   1.399       .  A
C429        F436   1.358       .  S
C430        C431   1.402   1_545  A
C431        C432   1.401       .  A
C431        F438   1.358       .  S
C432        C433   1.407   1_565  A
C432        F437   1.358       .  S
C433        C434   1.402       .  A
C434        F435   1.358       .  S
C439        C440   1.406       .  A
C439        C444   1.392       .  A
C439        F446   1.359       .  S
C440        C441   1.403   1_655  A
C441        C442   1.402       .  A
C441        F448   1.358       .  S
C442        C443   1.409   1_455  A
C442        F447   1.358       .  S
C443        C444   1.403       .  A
C444        F445   1.358       .  S
C449        C450   1.401       .  A
C449        C454   1.396       .  A
C449        F456   1.358       .  S
C450        C451   1.409   1_565  A
C451        C452   1.401       .  A
C451        F458   1.358       .  S
C452        C453   1.401   1_545  A
C452        F457   1.358       .  S
C453        C454   1.405       .  A
C454        F455   1.357       .  S
C459        C460   1.401       .  A
C459        C464   1.396       .  A
C459        F466   1.358       .  S
C460        C461   1.408   1_655  A
C461        C462   1.401       .  A
C461        F468   1.358       .  S
C462        C463   1.403   1_455  A
C462        F467   1.358       .  S
C463        C464   1.407       .  A
C464        F465   1.358       .  S
C469        C470   1.409       .  A
C469        C474   1.393       .  A
C469        F476   1.358       .  S
C470        C471   1.402   1_545  A
C471        C472   1.402       .  A
C471        F478   1.358       .  S
C472        C473   1.412   1_565  A
C472        F477   1.358       .  S
C473        C474   1.401       .  A
C474        F475   1.358       .  S
C479        C480   1.402       .  A
C479        C484   1.392       .  A
C479        F486   1.358       .  S
C480        C481   1.411   1_455  A
C481        C482   1.401       .  A
C481        F488   1.358       .  S
C482        C483   1.402   1_655  A
C482        F487   1.358       .  S
C483        C484   1.408       .  A
C484        F485   1.359       .  S
C489        C490   1.402       .  A
C489        C494   1.393       .  A
C489        F496   1.358       .  S
C490        C491   1.410   1_545  A
C491        C492   1.401       .  A
C491        F498   1.358       .  S
C492        C493   1.401   1_565  A
C492        F497   1.358       .  S
C493        C494   1.406       .  A
C494        F495   1.358       .  S
C499        C500   1.401   1_545  A
C499        C504   1.406       .  A
C499        F506   1.357       .  S
C500        C501   1.409       .  A
C501        C502   1.387       .  A
C501        F508   1.354       .  S
C502        C503   1.400       .  A
C502        F507   1.359       .  S
C503        C504   1.416   1_565  A
C504        F505   1.357       .  S
C509        C510   1.402       .  A
C509        C514   1.394       .  A
C509        F516   1.358       .  S
C510        C511   1.409   1_655  A
C511        C512   1.403       .  A
C511        F518   1.358       .  S
C512        C513   1.404   1_455  A
C512        F517   1.358       .  S
C513        C514   1.407       .  A
C514        F515   1.359       .  S
C519        C520   1.401   1_565  A
C519        C524   1.402       .  A
C519        F526   1.357       .  S
C520        C521   1.408       .  A
C521        C522   1.393       .  A
C521        F528   1.357       .  S
C522        C523   1.401       .  A
C522        F527   1.358       .  S
C523        C524   1.411   1_545  A
C524        F525   1.358       .  S
C529        C530   1.405   1_655  A
C529        C534   1.399       .  A
C529        F536   1.358       .  S
C530        C531   1.402       .  A
C531        C532   1.396       .  A
C531        F538   1.357       .  S
C532        C533   1.404       .  A
C532        F537   1.358       .  S
C533        C534   1.404   1_455  A
C534        F535   1.358       .  S
C539        C540   1.402   1_545  A
C539        C544   1.405       .  A
C539        F546   1.357       .  S
C540        C541   1.406       .  A
C541        C542   1.387       .  A
C541        F548   1.352       .  S
C542        C543   1.399       .  A
C542        F547   1.359       .  S
C543        C544   1.413   1_565  A
C544        F545   1.357       .  S
C549        C550   1.405       .  A
C549        C554   1.399       .  A
C549        F556   1.358       .  S
C550        C551   1.404   1_455  A
C551        C552   1.400       .  A
C551        F558   1.358       .  S
C552        C553   1.403   1_655  A
C552        F557   1.358       .  S
C553        C554   1.402       .  A
C554        F555   1.357       .  S
C559        C560   1.415   1_545  A
C559        C564   1.407       .  A
C559        F566   1.357       .  S
C560        C561   1.399       .  A
C561        C562   1.384       .  A
C561        F568   1.359       .  S
C562        C563   1.408       .  A
C562        F567   1.351       .  S
C563        C564   1.403   1_565  A
C564        F565   1.357       .  S
C569        C570   1.404   1_655  A
C569        C574   1.402       .  A
C569        F576   1.358       .  S
C570        C571   1.406       .  A
C571        C572   1.399       .  A
C571        F578   1.358       .  S
C572        C573   1.403       .  A
C572        F577   1.358       .  S
C573        C574   1.406   1_455  A
C574        F575   1.358       .  S
C579        C580   1.403       .  A
C579        C584   1.393       .  A
C579        F586   1.358       .  S
C580        C581   1.412   1_655  A
C581        C582   1.404       .  A
C581        F588   1.358       .  S
C582        C583   1.403   1_455  A
C582        F587   1.358       .  S
C583        C584   1.407       .  A
C584        F585   1.359       .  S
