geometry optimzed in LAMMPS
_audit_creation_date              2020-12-01 
_audit_creation_method            'lammps2cif' 
_symmetry_space_group_name_H-M    'P1' 
_symmetry_Int_Tables_number       1 
_symmetry_cell_setting            triclinic 
loop_ 
_symmetry_equiv_pos_as_xyz 
  x,y,z 
_cell_length_a                    20.17258617 
_cell_length_b                    48.01707471853512 
_cell_length_c                    26.29746955004152 
_cell_angle_alpha                 89.8039603450797 
_cell_angle_beta                  89.9943355384333 
_cell_angle_gamma                 90.00327696458749 
loop_ 
_atom_site_label 
_atom_site_type_symbol 
_atom_site_fract_x 
_atom_site_fract_y 
_atom_site_fract_z 
_atom_site_charge 
C1          C  0.22238259  0.29432539  0.27567675     0.83000
N2          N  0.24802588  0.27964573  0.23542280    -0.75300
C3          C  0.28747882  0.29293094  0.20026031     0.85500
N4          N  0.30077453  0.32043646  0.20592439    -0.75200
C5          C  0.27571199  0.33473952  0.24584598     0.85500
N6          N  0.23658132  0.32174652  0.28028552    -0.77000
C7          C  0.31279541  0.46155159  0.29365055     0.83000
N8          N  0.31987944  0.43345537  0.29122131    -0.75300
C9          C  0.28650329  0.41855419  0.25577607     0.85500
N10         N  0.24540900  0.43151568  0.22273522    -0.75200
C11         C  0.23709204  0.45943007  0.22418205     0.85500
N12         N  0.27097582  0.97472275  0.25990402    -0.77000
O13         O  0.66813534  0.48900544  0.49221766    -0.78100
O14         O  0.42269276  0.03178621  0.59536847    -0.62800
O15         O  0.53826061  0.48650520  0.51438161    -1.09400
C16         C  0.51293061  0.06273641  0.39640626     1.08800
O17         O  0.36193915  0.03300627  0.52650132    -0.76000
O18         O  0.38715574  0.02251923  0.42760130    -0.63600
Ni19       Ni  0.61624763  0.46976025  0.54115466     1.34900
C20         C  0.41708806  0.50205795  0.40782575     0.87500
O21         O  0.47899958  0.47894567  0.60979206    -0.76500
O22         O  0.56545063  0.45034043  0.59109193    -0.86800
C23         C  0.37146486  0.04066299  0.57180435     0.87100
O24         O  0.64114430  0.49575481  0.59215692    -0.65000
O25         O  0.46137322  0.06899090  0.42198256    -0.84300
C26         C  0.61243776  0.01625376  0.61270168     0.87900
C27         C  0.51467242  0.45698225  0.61732397     1.09500
H28         H  0.51847293  0.05054798  0.51497524     0.41300
O29         O  0.49212948  0.03516864  0.50284137    -1.07000
O30         O  0.47626884  0.49516463  0.42033165    -0.63600
Ni31       Ni  0.54693939  0.01344655  0.45942542     1.26300
O32         O  0.55558571  0.02524459  0.59804010    -0.63800
O33         O  0.55121431  0.04194821  0.40643808    -0.76100
C34         C  0.65951955  0.48132132  0.44688603     0.87300
O35         O  0.60891214  0.49021833  0.42273813    -0.63300
Ni36       Ni  0.41293045  0.05069465  0.47492246     1.27400
Ni37       Ni  0.48391202  0.00815207  0.55797195     1.26100
H38         H  0.51113229  0.47135033  0.50211417     0.41800
C39         C  0.72485495  0.21192759  0.77847428     0.83000
N40         N  0.73733221  0.18441252  0.78379839    -0.75300
C41         C  0.77757553  0.17106911  0.75082524     0.85500
N42         N  0.80557196  0.18510456  0.71156636    -0.75200
C43         C  0.79411238  0.21273753  0.70523543     0.85500
N44         N  0.75337921  0.22637546  0.73890950    -0.77000
C45         C  0.79378833  0.04450722  0.80474792     0.83000
N46         N  0.75286109  0.03171355  0.76997216    -0.75300
C47         C  0.72304304  0.04724183  0.73224851     0.85500
N48         N  0.73483350  0.07492879  0.72972049    -0.75200
C49         C  0.77528163  0.08742171  0.76366724     0.85500
N50         N  0.80442415  0.07233831  0.80108349    -0.77000
C51         C  0.55969736  0.11407597  0.27769397     0.83000
N52         N  0.62587944  0.11442535  0.27006044    -0.75300
C53         C  0.65224100  0.13089497  0.23376650     0.85500
N54         N  0.61340327  0.14730362  0.20511461    -0.75200
C55         C  0.54730448  0.14740320  0.21203782     0.85500
N56         N  0.51931564  0.13069916  0.24858233    -0.77000
C57         C  0.94503305  0.15062451  0.26847471     0.83000
N58         N  0.87943767  0.15236682  0.25909276    -0.75300
C59         C  0.84930312  0.13307727  0.23019570     0.85500
N60         N  0.88369857  0.11160054  0.21102180    -0.75200
C61         C  0.94921418  0.10926991  0.21985487     0.85500
N62         N  0.98098114  0.12882420  0.24901251    -0.77000
O63         O  0.85614681  0.28625985  0.46543481    -0.78100
O64         O  0.08547850  0.23192215  0.57779059    -0.62800
O65         O  0.98252030  0.28257312  0.49713420    -1.09400
C66         C  0.99844287  0.20608694  0.37771686     1.08800
O67         O  0.14656726  0.23060372  0.50954002    -0.76000
O68         O  0.12794036  0.23883681  0.40891253    -0.63600
Ni69       Ni  0.90391407  0.29971831  0.52255759     1.34900
C70         C  0.10677497  0.26161938  0.39099270     0.87500
O71         O  0.03675371  0.28545239  0.59593773    -0.76500
O72         O  0.94930616  0.31400556  0.58089966    -0.86800
C73         C  0.13424609  0.22152936  0.55349438     0.87100
O74         O  0.86861882  0.27049405  0.56408704    -0.65000
O75         O  0.04328091  0.19640560  0.40699876    -0.84300
C76         C  0.89532800  0.24984662  0.58614994     0.87900
C77         C  0.99913890  0.30629788  0.60728064     1.09500
H78         H  0.98775467  0.21852251  0.49399041     0.41300
O79         O  0.01921373  0.23267418  0.48383255    -1.07000
O80         O  0.05279148  0.27294311  0.40599081    -0.63600
Ni81       Ni  0.97420226  0.25733147  0.43927833     1.26300
O82         O  0.95474797  0.24198516  0.57704659    -0.63800
O83         O  0.96874924  0.22970747  0.38427785    -0.76100
C84         C  0.87324414  0.29521260  0.42213030     0.87300
O85         O  0.92348012  0.28436479  0.40043037    -0.63300
Ni86       Ni  0.09485512  0.21347934  0.45872239     1.27400
Ni87       Ni  0.03037127  0.25817529  0.54086967     1.26100
H88         H  0.01217574  0.29746411  0.48752732     0.41800
C89         C  0.44470753  0.35949052  0.77093867     0.83000
N90         N  0.37798646  0.36120960  0.77040198    -0.75300
C91         C  0.34765647  0.38168095  0.74422047     0.85500
N92         N  0.38321052  0.40066814  0.71832121    -0.75200
C93         C  0.44995595  0.39944402  0.71839329     0.85500
N94         N  0.48176314  0.37872042  0.74479904    -0.77000
C95         C  0.05008352  0.39495061  0.78301310     0.83000
N96         N  0.11640503  0.39723430  0.77854162    -0.75300
C97         C  0.14976974  0.38109476  0.74568412     0.85500
N98         N  0.11775412  0.36227100  0.71701925    -0.75200
C99         C  0.05141988  0.35944269  0.72050466     0.85500
N100        N  0.01638641  0.37586293  0.75385387    -0.77000
O101        O  0.85800526  0.47049379  0.04059374    -0.78100
O102        O  0.09235349  0.01924698  0.92633362    -0.62800
O103        O  0.98463926  0.47126118  0.00900184    -1.09400
C104        C  0.00843400  0.04848936  0.12566885     1.08800
O105        O  0.15478937  0.02068245  0.99414922    -0.76000
O106        O  0.13508466  0.01379600  0.09453456    -0.63600
Ni107      Ni  0.90433952  0.45517581  0.98441799     1.34900
C108        C  0.11291964  0.49141746  0.11337884     0.87500
O109        O  0.03737476  0.46652105  0.91014670    -0.76500
O110        O  0.94847387  0.43907719  0.92715016    -0.86800
C111        C  0.14381092  0.02842645  0.94913763     0.87100
O112        O  0.87176768  0.48427026  0.94123787    -0.65000
O113        O  0.05349683  0.05724786  0.09558365    -0.84300
C114        C  0.89950877  0.00471351  0.91924407     0.87900
C115        C  0.99856053  0.44583806  0.90019931     1.09500
H116        H  0.99590810  0.03507051  0.01011116     0.41300
O117        O  0.02628668  0.02055682  0.02051445    -1.07000
O118        O  0.05741583  0.48066946  0.09979719    -0.63600
Ni119      Ni  0.97934158  0.99703508  0.06618456     1.26300
O120        O  0.95963010  0.01182347  0.92812525    -0.63800
O121        O  0.97683917  0.02521842  0.12029773    -0.76100
C122        C  0.87342902  0.46144696  0.08417733     0.87300
O123        O  0.92530048  0.47115685  0.10571764    -0.63300
Ni124      Ni  0.10355326  0.03901294  0.04421020     1.27400
Ni125      Ni  0.03428789  0.99447018  0.96426163     1.26100
H126        H  0.01298819  0.45599431  0.01890236     0.41800
C127        C  0.24055315  0.10157267  0.61518696     0.83000
N128        N  0.23268620  0.12527576  0.58660070    -0.75300
C129        C  0.18870794  0.14520551  0.60224936     0.85500
N130        N  0.15461531  0.14161887  0.64571154    -0.75200
C131        C  0.16260337  0.11852518  0.67391680     0.85500
N132        N  0.20627035  0.09867209  0.65924351    -0.77000
C133        C  0.21375184  0.09922005  0.88865756     0.83000
N134        N  0.17597671  0.10197492  0.84688990    -0.75300
C135        C  0.17872007  0.12514958  0.81843923     0.85500
N136        N  0.22111445  0.14594958  0.83076628    -0.75200
C137        C  0.25937727  0.14386665  0.87306448     0.85500
N138        N  0.25600468  0.12023238  0.90251738    -0.77000
O139        O  0.64103589  0.27453265  0.01015632    -0.78100
O140        O  0.41724017  0.22370823  0.89360656    -0.62800
O141        O  0.51352045  0.27344761  0.98055124    -1.09400
C142        C  0.48578137  0.19819689  0.09991615     1.08800
O143        O  0.34822901  0.22186660  0.95744276    -0.76000
O144        O  0.35847176  0.23530800  0.05746914    -0.63600
Ni145      Ni  0.59139129  0.29216307  0.95809110     1.34900
C146        C  0.38528877  0.25562679  0.08025025     0.87500
O147        O  0.46605069  0.27812564  0.88038228    -0.76500
O148        O  0.54310889  0.30992270  0.90490973    -0.86800
C149        C  0.36605387  0.21297212  0.91440232     0.87100
O150        O  0.62558458  0.26668953  0.90938504    -0.65000
O151        O  0.43680142  0.19091503  0.07234544    -0.84300
C152        C  0.60338352  0.24464056  0.88954810     0.87900
C153        C  0.49803895  0.30126807  0.87484372     1.09500
H154        H  0.50303149  0.20874720  0.98160343     0.41300
O155        O  0.47367284  0.22371172  0.99118485    -1.07000
O156        O  0.44488150  0.26343082  0.07166831    -0.63600
Ni157      Ni  0.52099953  0.24712205  0.03665209     1.26300
O158        O  0.54729199  0.23403102  0.90168415    -0.63800
O159        O  0.52394629  0.21910661  0.09039311    -0.76100
C160        C  0.62718810  0.28225080  0.05464228     0.87300
O161        O  0.57570086  0.27225630  0.07615225    -0.63300
Ni162      Ni  0.39347881  0.20677386  0.01444128     1.27400
Ni163      Ni  0.46843685  0.24978996  0.93425768     1.26100
H164        H  0.48258632  0.28779932  0.99054253     0.41800
C165        C  0.76331288  0.36312462  0.38017566     0.83000
N166        N  0.72076320  0.35964716  0.34081365    -0.75300
C167        C  0.67793437  0.38018749  0.32785416     0.85500
N168        N  0.67895776  0.40452408  0.35284878    -0.75200
C169        C  0.72109824  0.40857741  0.39181584     0.85500
N170        N  0.76394201  0.38785940  0.40604263    -0.77000
C171        C  0.75125545  0.39712305  0.12718123     0.83000
N172        N  0.74221150  0.37350508  0.09875703    -0.75300
C173        C  0.69630151  0.35414760  0.11407159     0.85500
N174        N  0.66086537  0.35837834  0.15673157    -0.75200
C175        C  0.66938316  0.38159127  0.18430855     0.85500
N176        N  0.71520596  0.40073180  0.17015516    -0.77000
C177        C  0.64691590  0.37969127  0.27970658    -0.10500
C178        C  0.64454048  0.38175955  0.23456228    -0.12000
C179        C  0.66162710  0.30615397  0.07466038    -0.10500
C180        C  0.68456458  0.32819110  0.08837068    -0.12000
C181        C  0.33373761  0.18819732  0.89482467    -0.10500
C182        C  0.30255627  0.16711516  0.88553362    -0.12000
C183        C  0.14913699  0.12416313  0.76981753    -0.10500
C184        C  0.14321501  0.12002245  0.72539160    -0.12000
C185        C  0.83578737  0.43806759  0.10430140    -0.10500
C186        C  0.79960156  0.41841983  0.11381003    -0.12000
C187        C  0.18164212  0.05163235  0.92975716    -0.10500
C188        C  0.20564277  0.07350068  0.91601592    -0.12000
C189        C  0.01022664  0.42854235  0.85597032    -0.10500
C190        C  0.01973709  0.41261106  0.82089624    -0.12000
C191        C  0.47298427  0.33761604  0.80156628    -0.10500
C192        C  0.48375673  0.31949908  0.83258912    -0.12000
C193        C  0.21921726  0.38282505  0.74337301    -0.10500
C194        C  0.27808762  0.38293665  0.74328156    -0.12000
C195        C  0.18147989  0.17195298  0.57830611    -0.10500
C196        C  0.16350128  0.19536218  0.56826778    -0.12000
C197        C  0.83990781  0.31964958  0.40229843    -0.10500
C198        C  0.80778021  0.34040236  0.39269531    -0.12000
C199        C  0.01207055  0.32285420  0.65228079    -0.10500
C200        C  0.02186308  0.33924864  0.68661736    -0.12000
C201        C  0.98159135  0.08598704  0.19603527    -0.10500
C202        C  0.99350735  0.06693186  0.16736807    -0.12000
C203        C  0.97204902  0.17110279  0.30272055    -0.10500
C204        C  0.98243431  0.18857622  0.33491509    -0.12000
C205        C  0.49762668  0.18124307  0.14430499    -0.10500
C206        C  0.51052704  0.16543249  0.17879152    -0.12000
C207        C  0.77999941  0.13328830  0.22558938    -0.10500
C208        C  0.72127358  0.13207468  0.22730191    -0.12000
C209        C  0.86086793  0.01924889  0.88011406    -0.10500
C210        C  0.82818034  0.02937746  0.84543497    -0.12000
C211        C  0.68060159  0.22466628  0.81553194    -0.10500
C212        C  0.64392476  0.23235417  0.84960934    -0.12000
C213        C  0.82612553  0.22671965  0.66232840    -0.10500
C214        C  0.85700820  0.23609704  0.62614487    -0.12000
C215        C  0.78527395  0.11679740  0.76032118    -0.10500
C216        C  0.78619359  0.14168953  0.75582342    -0.12000
C217        C  0.28880471  0.08033396  0.60212069    -0.10500
C218        C  0.32769295  0.06176549  0.59233478    -0.12000
C219        C  0.69708334  0.45787175  0.42871879    -0.10500
C220        C  0.71788197  0.43537334  0.41577546    -0.12000
C221        C  0.52657770  0.08040916  0.35313407    -0.11900
C222        C  0.53552390  0.09614800  0.31769006    -0.12000
C223        C  0.49779362  0.43786126  0.65753096    -0.10500
C224        C  0.48363505  0.41991407  0.68797759    -0.12000
C225        C  0.64663152  0.02838303  0.65641273    -0.10500
C226        C  0.68032582  0.03536273  0.69291413    -0.12000
C227        C  0.19151253  0.47166617  0.18714251    -0.10500
C228        C  0.15346846  0.47896559  0.15345910    -0.12000
C229        C  0.38174245  0.48700650  0.36767122    -0.10500
C230        C  0.34957055  0.47652758  0.33316117    -0.12000
C231        C  0.34702804  0.26911411  0.12043297    -0.10500
C232        C  0.31718306  0.27861135  0.15691422    -0.12000
C233        C  0.14563625  0.27397903  0.34995240    -0.10500
C234        C  0.18021934  0.28177655  0.31456947    -0.12000
C235        C  0.29138771  0.38886734  0.25422517    -0.10500
C236        C  0.28774028  0.36395807  0.25063061    -0.12000
C237        C  0.22241977  0.79431575  0.27566142     0.83000
N238        N  0.24807666  0.77963406  0.23541518    -0.75300
C239        C  0.28753374  0.79291810  0.20025402     0.85500
N240        N  0.30081975  0.82042521  0.20591176    -0.75200
C241        C  0.27574293  0.83473061  0.24582605     0.85500
N242        N  0.23660872  0.82173810  0.28026397    -0.77000
C243        C  0.31280114  0.96154231  0.29365598     0.83000
N244        N  0.31988243  0.93344592  0.29121985    -0.75300
C245        C  0.28650818  0.91854790  0.25576834     0.85500
N246        N  0.24541877  0.93151307  0.22272825    -0.75200
C247        C  0.23710526  0.95942768  0.22418193     0.85500
N248        N  0.27096429  0.47472878  0.25989830    -0.77000
O249        O  0.66813549  0.98900320  0.49222954    -0.78100
O250        O  0.42271751  0.53178444  0.59537099    -0.62800
O251        O  0.53825632  0.98650785  0.51439126    -1.09400
C252        C  0.51292933  0.56273596  0.39641121     1.08800
O253        O  0.36195492  0.53300120  0.52650849    -0.76000
O254        O  0.38715722  0.52252228  0.42760330    -0.63600
Ni255      Ni  0.61624237  0.96976486  0.54117284     1.34900
C256        C  0.41708938  0.00205384  0.40782947     0.87500
O257        O  0.47897019  0.97894529  0.60979433    -0.76500
O258        O  0.56544320  0.95034829  0.59111408    -0.86800
C259        C  0.37148439  0.54065856  0.57181054     0.87100
O260        O  0.64113602  0.99576559  0.59216734    -0.65000
O261        O  0.46137578  0.56899192  0.42199098    -0.84300
C262        C  0.61245704  0.51624680  0.61268666     0.87900
C263        C  0.51465000  0.95698432  0.61733375     1.09500
H264        H  0.51848395  0.55054607  0.51497139     0.41300
O265        O  0.49213761  0.53516666  0.50283897    -1.07000
O266        O  0.47627094  0.99516300  0.42033771    -0.63600
Ni267      Ni  0.54694091  0.51344535  0.45941970     1.26300
O268        O  0.55561145  0.52524289  0.59802289    -0.63800
O269        O  0.55121254  0.54194749  0.40643818    -0.76100
C270        C  0.65951758  0.98131748  0.44689854     0.87300
O271        O  0.60891358  0.99021707  0.42274873    -0.63300
Ni272      Ni  0.41293701  0.55069373  0.47492964     1.27400
Ni273      Ni  0.48392835  0.50815032  0.55796804     1.26100
H274        H  0.51113391  0.97135248  0.50212371     0.41800
C275        C  0.72491167  0.71192041  0.77846586     0.83000
N276        N  0.73737167  0.68440400  0.78378262    -0.75300
C277        C  0.77760705  0.67105904  0.75080710     0.85500
N278        N  0.80561412  0.68509451  0.71155256    -0.75200
C279        C  0.79417208  0.71272943  0.70522944     0.85500
N280        N  0.75344610  0.72636891  0.73890640    -0.77000
C281        C  0.79378873  0.54449819  0.80473877     0.83000
N282        N  0.75286991  0.53170401  0.76995858    -0.75300
C283        C  0.72305648  0.54723214  0.73223332     0.85500
N284        N  0.73484325  0.57491919  0.72970689    -0.75200
C285        C  0.77528364  0.58741258  0.76365781     0.85500
N286        N  0.80442175  0.57232958  0.80107665    -0.77000
C287        C  0.55970339  0.61405742  0.27768532     0.83000
N288        N  0.62588613  0.61440460  0.27005597    -0.75300
C289        C  0.65225157  0.63086876  0.23375582     0.85500
N290        N  0.61341738  0.64727392  0.20509492    -0.75200
C291        C  0.54731852  0.64737511  0.21201591     0.85500
N292        N  0.51932569  0.63067731  0.24856630    -0.77000
C293        C  0.94504062  0.65060897  0.26849028     0.83000
N294        N  0.87944430  0.65235063  0.25911032    -0.75300
C295        C  0.84931232  0.63306304  0.23020706     0.85500
N296        N  0.88371028  0.61158935  0.21102586    -0.75200
C297        C  0.94922564  0.60925952  0.21985782     0.85500
N298        N  0.98099099  0.62881162  0.24902049    -0.77000
O299        O  0.85618663  0.78625044  0.46544190    -0.78100
O300        O  0.08554374  0.73192522  0.57778297    -0.62800
O301        O  0.98256709  0.78256867  0.49712396    -1.09400
C302        C  0.99847284  0.70607386  0.37772344     1.08800
O303        O  0.14662231  0.73060112  0.50952766    -0.76000
O304        O  0.12798165  0.73883222  0.40890204    -0.63600
Ni305      Ni  0.90396415  0.79971470  0.52255404     1.34900
C306        C  0.10680507  0.76161131  0.39097511     0.87500
O307        O  0.03681519  0.78545636  0.59592423    -0.76500
O308        O  0.94936653  0.81400857  0.58088581    -0.86800
C309        C  0.13430442  0.72152883  0.55348403     0.87100
O310        O  0.86868240  0.77049225  0.56409500    -0.65000
O311        O  0.04332750  0.69639797  0.40699644    -0.84300
C312        C  0.89539513  0.74984419  0.58615340     0.87900
C313        C  0.99920244  0.80630318  0.60726518     1.09500
H314        H  0.98781361  0.71851762  0.49399417     0.41300
O315        O  0.01926605  0.73266944  0.48382964    -1.07000
O316        O  0.05281555  0.77293195  0.40596915    -0.63600
Ni317      Ni  0.97423736  0.75732182  0.43927577     1.26300
O318        O  0.95481400  0.74198353  0.57704479    -0.63800
O319        O  0.96877160  0.72969251  0.38428575    -0.76100
C320        C  0.87327376  0.79520250  0.42213482     0.87300
O321        O  0.92350066  0.78435138  0.40042762    -0.63300
Ni322      Ni  0.09490600  0.71347464  0.45871499     1.27400
Ni323      Ni  0.03042910  0.75817502  0.54086073     1.26100
H324        H  0.01221864  0.79745883  0.48750907     0.41800
C325        C  0.44480965  0.85946794  0.77094162     0.83000
N326        N  0.37808844  0.86118060  0.77044454    -0.75300
C327        C  0.34772078  0.88165078  0.74428822     0.85500
N328        N  0.38323740  0.90064381  0.71837176    -0.75200
C329        C  0.44998428  0.89942677  0.71840326     0.85500
N330        N  0.48182975  0.87870399  0.74478591    -0.77000
C331        C  0.05012356  0.89494684  0.78302911     0.83000
N332        N  0.11645488  0.89720745  0.77860854    -0.75300
C333        C  0.14983148  0.88105492  0.74578001     0.85500
N334        N  0.11781744  0.86224252  0.71708914    -0.75200
C335        C  0.05147317  0.85943682  0.72052247     0.85500
N336        N  0.01642715  0.87587040  0.75384343    -0.77000
O337        O  0.85804185  0.97049490  0.04059129    -0.78100
O338        O  0.09233120  0.51923290  0.92632914    -0.62800
O339        O  0.98466898  0.97126887  0.00899662    -1.09400
C340        C  0.00842634  0.54848379  0.12566178     1.08800
O341        O  0.15476733  0.52066743  0.99414273    -0.76000
O342        O  0.13506573  0.51378423  0.09452749    -0.63600
Ni343      Ni  0.90437190  0.95518246  0.98440989     1.34900
C344        C  0.11294574  0.99142621  0.11337938     0.87500
O345        O  0.03740289  0.96653541  0.91013808    -0.76500
O346        O  0.94850407  0.93908960  0.92713556    -0.86800
C347        C  0.14378726  0.52841368  0.94913305     0.87100
O348        O  0.87179175  0.98427939  0.94123943    -0.65000
O349        O  0.05349106  0.55723948  0.09557588    -0.84300
C350        C  0.89948917  0.50470303  0.91924157     0.87900
C351        C  0.99858916  0.94585282  0.90018506     1.09500
H352        H  0.99589288  0.53506290  0.01010470     0.41300
O353        O  0.02626779  0.52054816  0.02051078    -1.07000
O354        O  0.05744685  0.98067583  0.09979274    -0.63600
Ni355      Ni  0.97931608  0.49703059  0.06618378     1.26300
O356        O  0.95961014  0.51181213  0.92812456    -0.63800
O357        O  0.97682111  0.52521557  0.12029161    -0.76100
C358        C  0.87347073  0.96144245  0.08416962     0.87300
O359        O  0.92533568  0.97115536  0.10571482    -0.63300
Ni360      Ni  0.10353968  0.53900149  0.04420292     1.27400
Ni361      Ni  0.03426392  0.49445867  0.96426321     1.26100
H362        H  0.01302157  0.95600197  0.01889417     0.41800
C363        C  0.24057017  0.60156708  0.61518296     0.83000
N364        N  0.23270793  0.62526973  0.58659523    -0.75300
C365        C  0.18873188  0.64520078  0.60224141     0.85500
N366        N  0.15463782  0.64161594  0.64570380    -0.75200
C367        C  0.16262197  0.61852238  0.67391067     0.85500
N368        N  0.20628568  0.59866795  0.65923865    -0.77000
C369        C  0.21373943  0.59921362  0.88866662     0.83000
N370        N  0.17597688  0.60197091  0.84689266    -0.75300
C371        C  0.17874505  0.62514337  0.81843727     0.85500
N372        N  0.22115210  0.64593857  0.83076591    -0.75200
C373        C  0.25940348  0.64385376  0.87306996     0.85500
N374        N  0.25600582  0.62022147  0.90252766    -0.77000
O375        O  0.64109252  0.77450439  0.01016761    -0.78100
O376        O  0.41729987  0.72369009  0.89359741    -0.62800
O377        O  0.51358356  0.77342625  0.98055109    -1.09400
C378        C  0.48581663  0.69817200  0.09990197     1.08800
O379        O  0.34828450  0.72185504  0.95743106    -0.76000
O380        O  0.35852239  0.73528853  0.05746496    -0.63600
Ni381      Ni  0.59146171  0.79213952  0.95810130     1.34900
C382        C  0.38534189  0.75560652  0.08024747     0.87500
O383        O  0.46613604  0.77810702  0.88037521    -0.76500
O384        O  0.54319390  0.80990174  0.90491603    -0.86800
C385        C  0.36610860  0.71295690  0.91439298     0.87100
O386        O  0.62565475  0.76666715  0.90939611    -0.65000
O387        O  0.43684029  0.69089178  0.07232674    -0.84300
C388        C  0.60345088  0.74462081  0.88955227     0.87900
C389        C  0.49813507  0.80124745  0.87483988     1.09500
H390        H  0.50308134  0.70872610  0.98159811     0.41300
O391        O  0.47372448  0.72369182  0.99117844    -1.07000
O392        O  0.44493433  0.76340998  0.07166397    -0.63600
Ni393      Ni  0.52105123  0.74709920  0.03665075     1.26300
O394        O  0.54735836  0.73401057  0.90168404    -0.63800
O395        O  0.52398450  0.71908184  0.09038745    -0.76100
C396        C  0.62724191  0.78222506  0.05465096     0.87300
O397        O  0.57575256  0.77223108  0.07615877    -0.63300
Ni398      Ni  0.39352420  0.70675650  0.01442781     1.27400
Ni399      Ni  0.46850147  0.74977078  0.93425178     1.26100
H400        H  0.48265119  0.78777836  0.99054084     0.41800
C401        C  0.76336970  0.86312525  0.38017867     0.83000
N402        N  0.72084077  0.85964852  0.34080343    -0.75300
C403        C  0.67801551  0.88018815  0.32783397     0.85500
N404        N  0.67902153  0.90452396  0.35283167    -0.75200
C405        C  0.72113971  0.90857710  0.39181309     0.85500
N406        N  0.76397949  0.88785909  0.40605073    -0.77000
C407        C  0.75131978  0.89710601  0.12714972     0.83000
N408        N  0.74227006  0.87348617  0.09873061    -0.75300
C409        C  0.69635617  0.85413115  0.11405129     0.85500
N410        N  0.66092421  0.85836612  0.15671187    -0.75200
C411        C  0.66944906  0.88158048  0.18428341     0.85500
N412        N  0.71527385  0.90071837  0.17012379    -0.77000
C413        C  0.64700281  0.87968870  0.27968434    -0.10500
C414        C  0.64461767  0.88175222  0.23453981    -0.12000
C415        C  0.66167453  0.80613217  0.07466206    -0.10500
C416        C  0.68461390  0.82817156  0.08836043    -0.12000
C417        C  0.33378808  0.68818011  0.89482266    -0.10500
C418        C  0.30259722  0.66709879  0.88553845    -0.12000
C419        C  0.14916711  0.62415939  0.76981312    -0.10500
C420        C  0.14323941  0.62002115  0.72538673    -0.12000
C421        C  0.83584654  0.93805375  0.10427820    -0.10500
C422        C  0.79966811  0.91840184  0.11377644    -0.12000
C423        C  0.18160873  0.55162471  0.92975909    -0.10500
C424        C  0.20561141  0.57349428  0.91602417    -0.12000
C425        C  0.01025463  0.92855867  0.85595220    -0.10500
C426        C  0.01976451  0.91262218  0.82088481    -0.12000
C427        C  0.47311876  0.83759419  0.80155266    -0.10500
C428        C  0.48388052  0.81947679  0.83257706    -0.12000
C429        C  0.21928094  0.88277746  0.74349339    -0.10500
C430        C  0.27815082  0.88289587  0.74338882    -0.12000
C431        C  0.18151423  0.67194867  0.57829760    -0.10500
C432        C  0.16354855  0.69535936  0.56825716    -0.12000
C433        C  0.83994568  0.81964450  0.40231142    -0.10500
C434        C  0.80782878  0.84040098  0.39270970    -0.12000
C435        C  0.01213587  0.82286256  0.65226324    -0.10500
C436        C  0.02192222  0.83925436  0.68660645    -0.12000
C437        C  0.98160300  0.58597935  0.19603328    -0.10500
C438        C  0.99351130  0.56692571  0.16736224    -0.12000
C439        C  0.97205862  0.67108574  0.30273755    -0.10500
C440        C  0.98245278  0.68855932  0.33492978    -0.12000
C441        C  0.49765258  0.68121632  0.14428680    -0.10500
C442        C  0.51054570  0.66540424  0.17877058    -0.12000
C443        C  0.78000962  0.63327178  0.22559898    -0.10500
C444        C  0.72128455  0.63205241  0.22730269    -0.12000
C445        C  0.86085495  0.51923846  0.88010879    -0.10500
C446        C  0.82817446  0.52936825  0.84542759    -0.12000
C447        C  0.68066445  0.72465856  0.81552602    -0.10500
C448        C  0.64398931  0.73234019  0.84960810    -0.12000
C449        C  0.82619514  0.72671229  0.66232786    -0.10500
C450        C  0.85707970  0.73609200  0.62614747    -0.12000
C451        C  0.78528079  0.61678749  0.76030755    -0.10500
C452        C  0.78621065  0.64167902  0.75580349    -0.12000
C453        C  0.28882328  0.58032870  0.60212211    -0.10500
C454        C  0.32771358  0.56176069  0.59234070    -0.12000
C455        C  0.69708327  0.95786733  0.42872988    -0.10500
C456        C  0.71789501  0.93537112  0.41578189    -0.12000
C457        C  0.52657290  0.58040563  0.35313819    -0.11900
C458        C  0.53552379  0.59613830  0.31768824    -0.12000
C459        C  0.49776477  0.93785831  0.65753406    -0.10500
C460        C  0.48362307  0.91990539  0.68797610    -0.12000
C461        C  0.64665445  0.52837437  0.65639511    -0.10500
C462        C  0.68034685  0.53535300  0.69289679    -0.12000
C463        C  0.19153404  0.97166863  0.18714150    -0.10500
C464        C  0.15349552  0.97897257  0.15345758    -0.12000
C465        C  0.38174634  0.98699787  0.36767865    -0.10500
C466        C  0.34957640  0.97651626  0.33316991    -0.12000
C467        C  0.34708496  0.76909497  0.12043193    -0.10500
C468        C  0.31724364  0.77859579  0.15691227    -0.12000
C469        C  0.14566342  0.77397086  0.34993278    -0.10500
C470        C  0.18025048  0.78176791  0.31455163    -0.12000
C471        C  0.29139606  0.88886066  0.25420584    -0.10500
C472        C  0.28775894  0.86395096  0.25060591    -0.12000
loop_ 
_geom_bond_atom_site_label_1 
_geom_bond_atom_site_label_2 
_geom_bond_distance 
_geom_bond_site_symmetry_2 
_ccdc_geom_bond_type 
C1            N2   1.375       .  A
C1            N6   1.353       .  A
C1          C234   1.459       .  S
N2            C3   1.375       .  A
C3            N4   1.356       .  A
C3          C232   1.462       .  S
N4            C5   1.354       .  A
C5            N6   1.352       .  A
C5          C236   1.430       .  S
C7            N8   1.358       .  A
C7          N248   1.377       .  A
C7          C230   1.467       .  S
N8            C9   1.356       .  A
C9           N10   1.351       .  A
C9          C235   1.430       .  S
N10          C11   1.352       .  A
C11         N248   1.376       .  A
C11         C227   1.461       .  S
N12         C243   1.377       .  A
N12         C247   1.376       .  A
O13         Ni19   1.897       .  S
O13          C34   1.261       .  A
O14         Ni37   1.946       .  S
O14          C23   1.277       .  A
O15         Ni19   1.901       .  S
O15        Ni273   1.898       .  S
O15        Ni267   1.944       .  S
O15          H38   0.967       .  S
C16         C221   1.444       .  S
C16          O33   1.289       .  A
C16          O25   1.275       .  A
O17         Ni36   1.900       .  S
O17          C23   1.263       .  A
O18         Ni36   1.913       .  S
O18         C256   1.267       .  A
Ni19         O22   1.907       .  S
Ni19         O24   1.903       .  S
C20         C229   1.467       .  S
C20          O30   1.282       .  A
C20         O254   1.267       .  A
O21        Ni273   1.955       .  S
O21          C27   1.292       .  A
O22          C27   1.276       .  A
C23         C218   1.450       .  S
O24         C262   1.264       .  A
O25         Ni36   1.912       .  S
C26         C225   1.463       .  S
C26          O32   1.284       .  A
C26         O260   1.264   1_545  A
C27         C223   1.439       .  S
H28          O29   0.965       .  S
O29         Ni37   1.949       .  S
O29         Ni31   1.903       .  S
O29         Ni36   1.909       .  S
O30        Ni267   1.966       .  S
Ni31         O33   1.952       .  S
Ni31        O266   1.966   1_545  S
Ni31        O271   1.935   1_545  S
Ni31        O251   1.944   1_545  S
O32         Ni37   1.970       .  S
C34         C219   1.440       .  S
C34          O35   1.275       .  A
O35        Ni267   1.935       .  S
Ni37        O257   1.955   1_545  S
Ni37        O251   1.898   1_545  S
C39          N40   1.352       .  A
C39          N44   1.375       .  A
C39         C211   1.458       .  S
N40          C41   1.351       .  A
C41          N42   1.354       .  A
C41         C216   1.427       .  S
N42          C43   1.357       .  A
C43          N44   1.376       .  A
C43         C213   1.461       .  S
C45          N46   1.378       .  A
C45          N50   1.357       .  A
C45         C210   1.466       .  S
N46          C47   1.377       .  A
C47          N48   1.352       .  A
C47         C226   1.464       .  S
N48          C49   1.351       .  A
C49          N50   1.354       .  A
C49         C215   1.427       .  S
C51          N52   1.350       .  A
C51          N56   1.372       .  A
C51         C222   1.442       .  S
N52          C53   1.347       .  A
C53          N54   1.341       .  A
C53         C208   1.404       .  S
N54          C55   1.346       .  A
C55          N56   1.371       .  A
C55         C206   1.435       .  S
C57          N58   1.349       .  A
C57          N62   1.374       .  A
C57         C203   1.443       .  S
N58          C59   1.345       .  A
C59          N60   1.343       .  A
C59         C207   1.403       .  S
N60          C61   1.346       .  A
C61          N62   1.373       .  A
C61         C201   1.440       .  S
O63         Ni69   1.900       .  S
O63          C84   1.264       .  A
O64         Ni87   1.939       .  S
O64          C73   1.276       .  A
O65         Ni69   1.909       .  S
O65         Ni87   1.902   1_655  S
O65         Ni81   1.956       .  S
O65          H88   0.965   1_655  S
C66         C204   1.444       .  S
C66          O83   1.295       .  A
C66          O75   1.275   1_655  A
O67         Ni86   1.886       .  S
O67          C73   1.259       .  A
O68         Ni86   1.906       .  S
O68          C70   1.264       .  A
Ni69         O72   1.916       .  S
Ni69         O74   1.913       .  S
C70         C233   1.458       .  S
C70          O80   1.280       .  A
O71         Ni87   1.960       .  S
O71          C77   1.292   1_455  A
O72          C77   1.276       .  A
C73         C196   1.440       .  S
O74          C76   1.267       .  A
O75         Ni86   1.901       .  S
C76         C214   1.461       .  S
C76          O82   1.280       .  A
C77         C199   1.452   1_655  S
H78          O79   0.967   1_655  S
O79         Ni87   1.953       .  S
O79         Ni81   1.895   1_455  S
O79         Ni86   1.902       .  S
O80         Ni81   1.959   1_455  S
Ni81         O85   1.941       .  S
Ni81         O83   1.969       .  S
O82         Ni87   1.957   1_655  S
C84         C197   1.448       .  S
C84          O85   1.275       .  A
C89          N90   1.349       .  A
C89          N94   1.371       .  A
C89         C191   1.439       .  S
N90          C91   1.345       .  A
C91          N92   1.344       .  A
C91         C194   1.405       .  S
N92          C93   1.348       .  A
C93          N94   1.371       .  A
C93         C224   1.436       .  S
C95          N96   1.347       .  A
C95         N100   1.377       .  A
C95         C190   1.446       .  S
N96          C97   1.343       .  A
C97          N98   1.344       .  A
C97         C193   1.405       .  S
N98          C99   1.348       .  A
C99         N100   1.377       .  A
C99         C200   1.448       .  S
O101       Ni107   1.898   1_554  S
O101        C122   1.263       .  A
O102       Ni125   1.943   1_545  S
O102        C111   1.278       .  A
O103       Ni107   1.908   1_554  S
O103       Ni361   1.902   1_654  S
O103       Ni355   1.954       .  S
O103        H126   0.965   1_655  S
C104        C202   1.444   1_455  S
C104        O121   1.295   1_455  A
C104        O113   1.275       .  A
O105       Ni124   1.893   1_556  S
O105        C111   1.259       .  A
O106       Ni124   1.900       .  S
O106        C344   1.263   1_545  A
Ni107       O110   1.915       .  S
Ni107       O112   1.914       .  S
C108        C228   1.461       .  S
C108        O118   1.284       .  A
C108        O342   1.263       .  A
O109       Ni361   1.960       .  S
O109        C115   1.292   1_455  A
O110        C115   1.275       .  A
C111        C187   1.442       .  S
O112        C350   1.267       .  A
O113       Ni124   1.902       .  S
C114        C209   1.466       .  S
C114        O120   1.282       .  A
C114        O348   1.267   1_545  A
C115        C189   1.451   1_655  S
H116        O117   0.967   1_655  S
O117       Ni125   1.948   1_544  S
O117       Ni119   1.899   1_445  S
O117       Ni124   1.899       .  S
O118       Ni355   1.969   1_455  S
Ni119       O121   1.968   1_565  S
Ni119       O354   1.969   1_655  S
Ni119       O359   1.950       .  S
Ni119       O339   1.954       .  S
O120       Ni125   1.965   1_645  S
C122        C185   1.453       .  S
C122        O123   1.279       .  A
O123       Ni355   1.950       .  S
Ni125       O345   1.960       .  S
Ni125       O339   1.902   1_456  S
C127        N128   1.371       .  A
C127        N132   1.356       .  A
C127        C217   1.452       .  S
N128        C129   1.369       .  A
C129        N130   1.344       .  A
C129        C195   1.436       .  S
N130        C131   1.342       .  A
C131        N132   1.355       .  A
C131        C184   1.411       .  S
C133        N134   1.343       .  A
C133        N138   1.371       .  A
C133        C188   1.436       .  S
N134        C135   1.340       .  A
C135        N136   1.355       .  A
C135        C183   1.412       .  S
N136        C137   1.357       .  A
C137        N138   1.373       .  A
C137        C182   1.454       .  S
O139       Ni145   1.894   1_554  S
O139        C160   1.260       .  A
O140       Ni163   1.946       .  S
O140        C149   1.276       .  A
O141       Ni145   1.903       .  S
O141       Ni163   1.900       .  S
O141       Ni157   1.945   1_556  S
O141        H164   0.967       .  S
C142        C205   1.441       .  S
C142        O159   1.289       .  A
C142        O151   1.275       .  A
O143       Ni162   1.897   1_556  S
O143        C149   1.263       .  A
O144       Ni162   1.915       .  S
O144        C146   1.268       .  A
Ni145       O148   1.904       .  S
Ni145       O150   1.903       .  S
C146        C231   1.462       .  S
C146        O156   1.279       .  A
O147       Ni163   1.962       .  S
O147        C153   1.293       .  A
O148        C153   1.275       .  A
C149        C181   1.452       .  S
O150        C152   1.264       .  A
O151       Ni162   1.912       .  S
C152        C212   1.457       .  S
C152        O158   1.281       .  A
C153        C192   1.441       .  S
H154        O155   0.965       .  S
O155       Ni163   1.951       .  S
O155       Ni157   1.901   1_556  S
O155       Ni162   1.910   1_556  S
O156       Ni157   1.955       .  S
Ni157       O161   1.940       .  S
Ni157       O159   1.949       .  S
O158       Ni163   1.960       .  S
C160        C179   1.443       .  S
C160        O161   1.276       .  A
C165        N166   1.356       .  A
C165        N170   1.371       .  A
C165        C198   1.450       .  S
N166        C167   1.354       .  A
C167        N168   1.343       .  A
C167        C177   1.413       .  S
N168        C169   1.346       .  A
C169        N170   1.369       .  A
C169        C220   1.436       .  S
C171        N172   1.373       .  A
C171        N176   1.355       .  A
C171        C186   1.455       .  S
N172        C173   1.372       .  A
C173        N174   1.346       .  A
C173        C180   1.439       .  S
N174        C175   1.343       .  A
C175        N176   1.355       .  A
C175        C178   1.413       .  S
C177        C178   1.192       .  T
C179        C180   1.211       .  T
C181        C182   1.217       .  T
C183        C184   1.192       .  T
C185        C186   1.218       .  T
C187        C188   1.210       .  T
C189        C190   1.216       .  T
C191        C192   1.210       .  T
C193        C194   1.188       .  T
C195        C196   1.209       .  T
C197        C198   1.215       .  T
C199        C200   1.216       .  T
C201        C202   1.212       .  T
C203        C204   1.212       .  T
C205        C206   1.209       .  T
C207        C208   1.187       .  T
C209        C210   1.225       .  T
C211        C212   1.220       .  T
C213        C214   1.222       .  T
C215        C216   1.201       .  T
C217        C218   1.216       .  T
C219        C220   1.209       .  T
C221        C222   1.211       .  T
C223        C224   1.209       .  T
C225        C226   1.224       .  T
C227        C228   1.222       .  T
C229        C230   1.225       .  T
C231        C232   1.222       .  T
C233        C234   1.221       .  T
C235        C236   1.202       .  T
C237        N238   1.375       .  A
C237        N242   1.353       .  A
C237        C470   1.459       .  S
N238        C239   1.375       .  A
C239        N240   1.356       .  A
C239        C468   1.462       .  S
N240        C241   1.354       .  A
C241        N242   1.352       .  A
C241        C472   1.430       .  S
C243        N244   1.358       .  A
C243        C466   1.467       .  S
N244        C245   1.356       .  A
C245        N246   1.351       .  A
C245        C471   1.430       .  S
N246        C247   1.352       .  A
C247        C463   1.461       .  S
O249       Ni255   1.897       .  S
O249        C270   1.261       .  A
O250       Ni273   1.946       .  S
O250        C259   1.277       .  A
O251       Ni255   1.901       .  S
O251        H274   0.967       .  S
C252        C457   1.444       .  S
C252        O269   1.289       .  A
C252        O261   1.275       .  A
O253       Ni272   1.900       .  S
O253        C259   1.263       .  A
O254       Ni272   1.913       .  S
Ni255       O258   1.907       .  S
Ni255       O260   1.903       .  S
C256        C465   1.467   1_545  S
C256        O266   1.282   1_545  A
O257        C263   1.292       .  A
O258        C263   1.276       .  A
C259        C454   1.450       .  S
O261       Ni272   1.912       .  S
C262        C461   1.463       .  S
C262        O268   1.284       .  A
C263        C459   1.439       .  S
H264        O265   0.965       .  S
O265       Ni273   1.949       .  S
O265       Ni267   1.903       .  S
O265       Ni272   1.909       .  S
Ni267       O269   1.952       .  S
O268       Ni273   1.970       .  S
C270        C455   1.440       .  S
C270        O271   1.275       .  A
C275        N276   1.352       .  A
C275        N280   1.375       .  A
C275        C447   1.458       .  S
N276        C277   1.351       .  A
C277        N278   1.354       .  A
C277        C452   1.427       .  S
N278        C279   1.357       .  A
C279        N280   1.376       .  A
C279        C449   1.461       .  S
C281        N282   1.378       .  A
C281        N286   1.357       .  A
C281        C446   1.466       .  S
N282        C283   1.377       .  A
C283        N284   1.352       .  A
C283        C462   1.464       .  S
N284        C285   1.351       .  A
C285        N286   1.354       .  A
C285        C451   1.427       .  S
C287        N288   1.350       .  A
C287        N292   1.372       .  A
C287        C458   1.442       .  S
N288        C289   1.347       .  A
C289        N290   1.341       .  A
C289        C444   1.404       .  S
N290        C291   1.346       .  A
C291        N292   1.371       .  A
C291        C442   1.435       .  S
C293        N294   1.349       .  A
C293        N298   1.374       .  A
C293        C439   1.443       .  S
N294        C295   1.345       .  A
C295        N296   1.343       .  A
C295        C443   1.403       .  S
N296        C297   1.346       .  A
C297        N298   1.373       .  A
C297        C437   1.440       .  S
O299       Ni305   1.900       .  S
O299        C320   1.264       .  A
O300       Ni323   1.939       .  S
O300        C309   1.276       .  A
O301       Ni305   1.909       .  S
O301       Ni323   1.902   1_655  S
O301       Ni317   1.956       .  S
O301        H324   0.965   1_655  S
C302        C440   1.444       .  S
C302        O319   1.295       .  A
C302        O311   1.275   1_655  A
O303       Ni322   1.886       .  S
O303        C309   1.259       .  A
O304       Ni322   1.906       .  S
O304        C306   1.264       .  A
Ni305       O308   1.916       .  S
Ni305       O310   1.913       .  S
C306        C469   1.458       .  S
C306        O316   1.280       .  A
O307       Ni323   1.960       .  S
O307        C313   1.292   1_455  A
O308        C313   1.276       .  A
C309        C432   1.440       .  S
O310        C312   1.267       .  A
O311       Ni322   1.901       .  S
C312        C450   1.461       .  S
C312        O318   1.280       .  A
C313        C435   1.452   1_655  S
H314        O315   0.967   1_655  S
O315       Ni323   1.953       .  S
O315       Ni317   1.895   1_455  S
O315       Ni322   1.902       .  S
O316       Ni317   1.959   1_455  S
Ni317       O321   1.941       .  S
Ni317       O319   1.969       .  S
O318       Ni323   1.957   1_655  S
C320        C433   1.448       .  S
C320        O321   1.275       .  A
C325        N326   1.349       .  A
C325        N330   1.371       .  A
C325        C427   1.439       .  S
N326        C327   1.345       .  A
C327        N328   1.344       .  A
C327        C430   1.405       .  S
N328        C329   1.348       .  A
C329        N330   1.371       .  A
C329        C460   1.436       .  S
C331        N332   1.347       .  A
C331        N336   1.377       .  A
C331        C426   1.446       .  S
N332        C333   1.343       .  A
C333        N334   1.344       .  A
C333        C429   1.405       .  S
N334        C335   1.348       .  A
C335        N336   1.377       .  A
C335        C436   1.448       .  S
O337       Ni343   1.898   1_554  S
O337        C358   1.263       .  A
O338       Ni361   1.943       .  S
O338        C347   1.278       .  A
O339       Ni343   1.908   1_554  S
O339        H362   0.965   1_655  S
C340        C438   1.444   1_455  S
C340        O357   1.295   1_455  A
C340        O349   1.275       .  A
O341       Ni360   1.893   1_556  S
O341        C347   1.259       .  A
O342       Ni360   1.900       .  S
Ni343       O346   1.915       .  S
Ni343       O348   1.914       .  S
C344        C464   1.461       .  S
C344        O354   1.284       .  A
O345        C351   1.292   1_455  A
O346        C351   1.275       .  A
C347        C423   1.442       .  S
O349       Ni360   1.902       .  S
C350        C445   1.466       .  S
C350        O356   1.282       .  A
C351        C425   1.451   1_655  S
H352        O353   0.967   1_655  S
O353       Ni361   1.948   1_554  S
O353       Ni355   1.899   1_455  S
O353       Ni360   1.899       .  S
Ni355       O357   1.968       .  S
O356       Ni361   1.965   1_655  S
C358        C421   1.454       .  S
C358        O359   1.279       .  A
C363        N364   1.371       .  A
C363        N368   1.356       .  A
C363        C453   1.452       .  S
N364        C365   1.369       .  A
C365        N366   1.344       .  A
C365        C431   1.436       .  S
N366        C367   1.342       .  A
C367        N368   1.355       .  A
C367        C420   1.411       .  S
C369        N370   1.343       .  A
C369        N374   1.371       .  A
C369        C424   1.436       .  S
N370        C371   1.340       .  A
C371        N372   1.355       .  A
C371        C419   1.412       .  S
N372        C373   1.357       .  A
C373        N374   1.373       .  A
C373        C418   1.454       .  S
O375       Ni381   1.894   1_554  S
O375        C396   1.260       .  A
O376       Ni399   1.946       .  S
O376        C385   1.276       .  A
O377       Ni381   1.903       .  S
O377       Ni399   1.900       .  S
O377       Ni393   1.945   1_556  S
O377        H400   0.967       .  S
C378        C441   1.441       .  S
C378        O395   1.289       .  A
C378        O387   1.275       .  A
O379       Ni398   1.897   1_556  S
O379        C385   1.263       .  A
O380       Ni398   1.915       .  S
O380        C382   1.268       .  A
Ni381       O384   1.904       .  S
Ni381       O386   1.903       .  S
C382        C467   1.462       .  S
C382        O392   1.279       .  A
O383       Ni399   1.962       .  S
O383        C389   1.293       .  A
O384        C389   1.275       .  A
C385        C417   1.452       .  S
O386        C388   1.264       .  A
O387       Ni398   1.912       .  S
C388        C448   1.457       .  S
C388        O394   1.281       .  A
C389        C428   1.441       .  S
H390        O391   0.965       .  S
O391       Ni399   1.951       .  S
O391       Ni393   1.901   1_556  S
O391       Ni398   1.910   1_556  S
O392       Ni393   1.955       .  S
Ni393       O397   1.940       .  S
Ni393       O395   1.949       .  S
O394       Ni399   1.960       .  S
C396        C415   1.443       .  S
C396        O397   1.276       .  A
C401        N402   1.356       .  A
C401        N406   1.371       .  A
C401        C434   1.450       .  S
N402        C403   1.354       .  A
C403        N404   1.343       .  A
C403        C413   1.413       .  S
N404        C405   1.346       .  A
C405        N406   1.369       .  A
C405        C456   1.436       .  S
C407        N408   1.373       .  A
C407        N412   1.355       .  A
C407        C422   1.455       .  S
N408        C409   1.372       .  A
C409        N410   1.346       .  A
C409        C416   1.439       .  S
N410        C411   1.343       .  A
C411        N412   1.355       .  A
C411        C414   1.413       .  S
C413        C414   1.192       .  T
C415        C416   1.211       .  T
C417        C418   1.217       .  T
C419        C420   1.192       .  T
C421        C422   1.218       .  T
C423        C424   1.210       .  T
C425        C426   1.216       .  T
C427        C428   1.210       .  T
C429        C430   1.188       .  T
C431        C432   1.209       .  T
C433        C434   1.215       .  T
C435        C436   1.216       .  T
C437        C438   1.212       .  T
C439        C440   1.212       .  T
C441        C442   1.209       .  T
C443        C444   1.187       .  T
C445        C446   1.225       .  T
C447        C448   1.220       .  T
C449        C450   1.222       .  T
C451        C452   1.201       .  T
C453        C454   1.216       .  T
C455        C456   1.209       .  T
C457        C458   1.211       .  T
C459        C460   1.209       .  T
C461        C462   1.224       .  T
C463        C464   1.222       .  T
C465        C466   1.225       .  T
C467        C468   1.222       .  T
C469        C470   1.221       .  T
C471        C472   1.202       .  T
